./ABIGIB_from_POSCAR.cif_generated_by_CrystalShift
_symmetry_cell_setting triclinic
_symmetry_space_group_name_H-M 'P 1'
loop_
_symmetry_equiv_pos_site_id
_symmetry_equiv_pos_as_xyz
1 x,y,z
_cell_length_a 23.483400
_cell_length_b 13.859400
_cell_length_c 15.025600
_cell_angle_alpha 90.000000
_cell_angle_beta 125.173000
_cell_angle_gamma 90.000000
_cell_volume 3997.427527
loop_
_atom_site_label
_atom_site_type_symbol
_atom_site_fract_x
_atom_site_fract_y
_atom_site_fract_z
H1 H 0.982200 0.646400 0.552600
H2 H 0.241300 1.169000 0.325600
H3 H 0.967400 0.293900 0.573500
H4 H 0.145800 0.639200 0.344500
H5 H 0.075300 0.586400 0.260900
H6 H 0.122300 0.622400 0.224600
H7 H 0.902900 0.158500 0.530800
H8 H 0.782100 0.166400 0.419100
H9 H 0.175600 0.323300 0.277000
H10 H 0.180700 0.330000 0.385600
H11 H 0.726600 0.309200 0.350600
H12 H 0.064800 0.276900 0.282700
H13 H 0.121600 0.200400 0.308800
H14 H 0.076700 0.248700 0.193500
H15 H 0.685500 0.487300 0.425100
H16 H 0.308700 1.303200 0.375700
H17 H 0.687700 0.495900 0.164800
H18 H 0.645800 1.139200 0.344500
H19 H 0.575300 1.086400 0.260900
H20 H 0.622300 1.122400 0.224600
H21 H 0.468000 0.501800 0.147000
H22 H 0.470800 0.503400 0.048000
H23 H 0.675600 0.823300 0.277000
H24 H 0.680700 0.830000 0.385600
H25 H 0.929900 0.791900 0.487800
H26 H 0.564800 0.776900 0.282700
H27 H 0.621600 0.700400 0.308800
H28 H 0.576700 0.748700 0.193500
H29 H 0.808700 0.803200 0.375700
H30 H 0.429900 1.291900 0.487800
H31 H 0.241300 -0.169000 0.825600
H32 H 0.145800 0.360800 0.844500
H33 H 0.075300 0.413600 0.760900
H34 H 0.122300 0.377600 0.724600
H35 H 0.308700 -0.303200 0.875700
H36 H 0.429900 -0.291900 0.987800
H37 H 0.175600 0.676700 0.777000
H38 H 0.180700 0.670000 0.885600
H39 H 0.482200 -0.146400 1.052600
H40 H 0.064800 0.723100 0.782700
H41 H 0.121600 0.799600 0.808800
H42 H 0.076700 0.751300 0.693500
H43 H 0.474200 0.028600 1.061000
H44 H 0.482200 1.146400 0.552600
H45 H 0.467400 0.206100 1.073500
H46 H 0.645800 -0.139200 0.844500
H47 H 0.575300 -0.086400 0.760900
H48 H 0.622300 -0.122400 0.724600
H49 H 0.402900 0.341500 1.030800
H50 H 0.282100 0.333600 0.919100
H51 H 0.675600 0.176700 0.777000
H52 H 0.680700 0.170000 0.885600
H53 H 0.226600 0.190800 0.850600
H54 H 0.564800 0.223100 0.782700
H55 H 0.621600 0.299600 0.808800
H56 H 0.576700 0.251300 0.693500
H57 H 0.185500 0.012700 0.925100
H58 H 0.187700 0.004100 0.664800
H59 H -0.032000 -0.001800 0.647000
H60 H 0.854200 0.360800 0.655500
H61 H 0.924700 0.413600 0.739100
H62 H 0.877700 0.377600 0.775400
H63 H -0.029200 -0.003400 0.548000
H64 H 0.741300 0.669000 0.325600
H65 H 0.824400 0.676700 0.723000
H66 H 0.819300 0.670000 0.614400
H67 H 0.741300 0.331000 0.825600
H68 H 0.935200 0.723100 0.717300
H69 H 0.878400 0.799600 0.691200
H70 H 0.923300 0.751300 0.806500
H71 H 0.474200 0.971400 0.561000
H72 H 0.808700 0.196800 0.875700
H73 H 0.929900 0.208100 0.987800
H74 H 0.354200 -0.139200 0.655500
H75 H 0.424700 -0.086400 0.739100
H76 H 0.377700 -0.122400 0.775400
H77 H 0.982200 0.353600 1.052600
H78 H 0.974200 0.528600 1.061000
H79 H 0.324400 0.176700 0.723000
H80 H 0.319300 0.170000 0.614400
H81 H 0.967400 0.706100 1.073500
H82 H 0.435200 0.223100 0.717300
H83 H 0.378400 0.299600 0.691200
H84 H 0.423300 0.251300 0.806500
H85 H 0.902900 0.841500 1.030800
H86 H 0.467400 0.793900 0.573500
H87 H 0.782100 0.833600 0.919100
H88 H 0.854200 0.639200 0.155500
H89 H 0.924700 0.586400 0.239100
H90 H 0.877700 0.622400 0.275400
H91 H 0.726600 0.690800 0.850600
H92 H 0.685500 0.512700 0.925100
H93 H 0.824400 0.323300 0.223000
H94 H 0.819300 0.330000 0.114400
H95 H 0.687700 0.504100 0.664800
H96 H 0.935200 0.276900 0.217300
H97 H 0.878400 0.200400 0.191200
H98 H 0.923300 0.248700 0.306500
H99 H 0.468000 0.498200 0.647000
H100 H 0.402900 0.658500 0.530800
H101 H 0.470800 0.496600 0.548000
H102 H 0.354200 1.139200 0.155500
H103 H 0.424700 1.086400 0.239100
H104 H 0.377700 1.122400 0.275400
H105 H -0.029200 1.003400 0.048000
H106 H -0.032000 1.001800 0.147000
H107 H 0.324400 0.823300 0.223000
H108 H 0.319300 0.830000 0.114400
H109 H 0.758700 -0.169000 0.674400
H110 H 0.435200 0.776900 0.217300
H111 H 0.378400 0.700400 0.191200
H112 H 0.423300 0.748700 0.306500
H113 H 0.691300 -0.303200 0.624300
H114 H 0.282100 0.666400 0.419100
H115 H 0.570100 -0.291900 0.512200
H116 H 0.529200 0.503400 0.452000
H117 H 0.532000 0.501800 0.353000
H118 H 0.517800 -0.146400 0.447400
H119 H 0.525800 0.028600 0.439000
H120 H 0.312300 0.495900 0.335200
H121 H 0.532600 0.206100 0.426500
H122 H 0.597100 0.341500 0.469200
H123 H 0.314500 0.487300 0.074900
H124 H 0.717900 0.333600 0.580900
H125 H 0.773400 0.190800 0.649400
H126 H 0.814500 0.012700 0.574900
H127 H 0.273400 0.309200 0.149400
H128 H 0.812300 0.004100 0.835200
H129 H 0.217900 0.166400 0.080900
H130 H 1.032000 -0.001800 0.853000
H131 H 0.097100 0.158500 -0.030800
H132 H 1.029200 -0.003400 0.952000
H133 H 0.032600 0.293900 -0.073500
H134 H 0.187700 0.995900 0.164800
H135 H 0.258700 0.331000 0.674400
H136 H 0.025800 0.471400 -0.061000
H137 H 0.191300 0.196800 0.624300
H138 H 0.070100 0.208100 0.512200
H139 H 0.017800 0.646400 -0.052600
H140 H 0.017800 0.353600 0.447400
H141 H 0.070100 0.791900 0.012200
H142 H 0.025800 0.528600 0.439000
H143 H 0.191300 0.803200 0.124300
H144 H 0.032600 0.706100 0.426500
H145 H 0.258700 0.669000 0.174400
H146 H 0.097100 0.841500 0.469200
H147 H 0.226600 0.809200 0.350600
H148 H 0.217900 0.833600 0.580900
H149 H 0.273400 0.690800 0.649400
H150 H 1.029200 1.003400 0.452000
H151 H 1.032000 1.001800 0.353000
H152 H 0.314500 0.512700 0.574900
H153 H 0.312300 0.504100 0.835200
H154 H 0.812300 0.995900 0.335200
H155 H 0.532000 0.498200 0.853000
H156 H 0.529200 0.496600 0.952000
H157 H 0.814500 0.987300 0.074900
H158 H 0.185500 0.987300 0.425100
H159 H 0.758700 1.169000 0.174400
H160 H 0.691300 1.303200 0.124300
H161 H 0.773400 0.809200 0.149400
H162 H 0.570100 1.291900 0.012200
H163 H 0.717900 0.666400 0.080900
H164 H 0.517800 1.146400 -0.052600
H165 H 0.597100 0.658500 -0.030800
H166 H 0.974200 0.471400 0.561000
H167 H 0.532600 0.793900 -0.073500
H168 H 0.525800 0.971400 -0.061000
C169 C 0.574170 0.974830 -0.016230
C170 C 0.612960 0.890260 0.010760
C171 C 0.580910 0.798230 -0.029000
C172 C 0.566140 1.149880 -0.006800
C173 C 0.619060 0.717700 -0.003600
C174 C 0.597070 1.236500 0.031100
C175 C 0.691890 0.722650 0.063800
C176 C 0.670300 1.243150 0.099300
C177 C 0.725000 0.808040 0.104330
C178 C 0.710520 1.162890 0.128840
C179 C 0.687780 0.895740 0.079950
C180 C 0.680580 1.069970 0.091700
C181 C 0.279570 0.985420 0.380270
C182 C 0.720430 0.985420 0.119730
C183 C 0.162230 0.990660 0.349900
C184 C 0.837770 0.990660 0.150100
C185 C 0.938840 0.999100 0.319420
C186 C 0.298350 0.509040 0.691330
C187 C 0.336480 0.504660 0.803360
C188 C 0.836480 0.995340 0.303360
C189 C 0.438840 0.500900 0.819420
C190 C 0.337770 0.509340 0.650100
C191 C 0.798350 0.990960 0.191330
C192 C 0.220430 0.514580 0.619730
C193 C 0.319420 1.069970 0.408300
C194 C 0.225000 0.691960 0.604330
C195 C 0.312220 0.895740 0.420050
C196 C 0.191890 0.777350 0.563800
C197 C 0.275000 0.808040 0.395670
C198 C 0.119060 0.782300 0.496400
C199 C 0.180580 0.569970 0.091700
C200 C 0.080910 0.701770 0.471000
C201 C 0.210520 0.662890 0.128840
C202 C 0.112960 0.609740 0.510760
C203 C 0.074170 0.525170 0.483770
C204 C 0.170300 0.743150 0.099300
C205 C 0.106050 0.436460 0.522070
C206 C 0.066140 0.350120 0.493200
C207 C 0.097070 0.736500 0.031100
C208 C 0.097070 0.263500 0.531100
C209 C 0.066140 0.649880 -0.006800
C210 C 0.170300 0.256850 0.599300
C211 C 0.106050 0.563540 0.022070
C212 C 0.210520 0.337110 0.628840
C213 C 0.074170 0.474830 -0.016230
C214 C 0.180580 0.430030 0.591700
C215 C 0.061160 0.999100 0.180580
C216 C 0.112960 0.390260 0.010760
C217 C 0.163520 0.995340 0.196640
C218 C 0.080910 0.298230 -0.029000
C219 C 0.119060 0.217700 -0.003600
C220 C 0.798350 0.009040 0.691330
C221 C 0.836480 0.004660 0.803360
C222 C 0.191890 0.222650 0.063800
C223 C 0.938840 0.000900 0.819420
C224 C 0.837770 0.009340 0.650100
C225 C 0.225000 0.308040 0.104330
C226 C 0.720430 0.014580 0.619730
C227 C 0.687780 0.104260 0.579950
C228 C 0.725000 0.191960 0.604330
C229 C 0.187780 0.395740 0.079950
C230 C 0.691890 0.277350 0.563800
C231 C 0.220430 0.485420 0.119730
C232 C 0.619060 0.282300 0.496400
C233 C 0.337770 0.490660 0.150100
C234 C 0.580910 0.201770 0.471000
C235 C 0.438840 0.499100 0.319420
C236 C 0.612960 0.109740 0.510760
C237 C 0.574170 0.025170 0.483770
C238 C 0.336480 0.495340 0.303360
C239 C 0.606050 -0.063540 0.522070
C240 C 0.566140 -0.149880 0.493200
C241 C 0.298350 0.490960 0.191330
C242 C 0.597070 -0.236500 0.531100
C243 C 0.308110 0.722650 0.436200
C244 C 0.670300 -0.243150 0.599300
C245 C 0.380940 0.717700 0.503600
C246 C 0.710520 -0.162890 0.628840
C247 C 0.400980 0.758800 0.230000
C248 C 0.680580 -0.069970 0.591700
C249 C 0.201650 0.990960 0.308670
C250 C 0.351150 0.833000 0.193100
C251 C 0.340840 1.002030 0.183880
C252 C 0.377580 1.095700 0.216300
C253 C 0.419090 0.798230 0.529000
C254 C 0.701650 0.509040 0.808670
C255 C 0.663520 0.504660 0.696640
C256 C 0.900980 0.258800 0.230000
C257 C 0.561160 0.500900 0.680580
C258 C 0.662230 0.509340 0.849900
C259 C 0.851150 0.333000 0.193100
C260 C 0.779570 0.514580 0.880270
C261 C 0.812220 0.604260 0.920050
C262 C 0.775000 0.691960 0.895670
C263 C 0.840840 0.502030 0.183880
C264 C 0.808110 0.777350 0.936200
C265 C 0.877580 0.595700 0.216300
C266 C 0.880940 0.782300 1.003600
C267 C 0.387040 0.890260 0.489240
C268 C 0.919090 0.701770 1.029000
C269 C 0.400980 0.241200 0.730000
C270 C 0.887040 0.609740 0.989240
C271 C 0.925830 0.525170 1.016230
C272 C 0.351150 0.167000 0.693100
C273 C 0.893950 0.436460 0.977930
C274 C 0.933860 0.350120 1.006800
C275 C 0.340840 -0.002030 0.683880
C276 C 0.902930 0.263500 0.968900
C277 C 0.377580 -0.095700 0.716300
C278 C 0.829700 0.256850 0.900700
C279 C 0.425830 0.974830 0.516230
C280 C 0.789480 0.337110 0.871160
C281 C 0.900980 0.741200 0.730000
C282 C 0.819420 0.430030 0.908300
C283 C 0.819420 0.569970 0.408300
C284 C 0.851150 0.667000 0.693100
C285 C 0.789480 0.662890 0.371160
C286 C 0.840840 0.497970 0.683880
C287 C 0.877580 0.404300 0.716300
C288 C 0.201650 0.009040 0.808670
C289 C 0.163520 0.004660 0.696640
C290 C 0.393950 1.063540 0.477930
C291 C 0.061160 0.000900 0.680580
C292 C 0.162230 0.009340 0.849900
C293 C 0.433860 1.149880 0.506800
C294 C 0.279570 0.014580 0.880270
C295 C 0.312220 0.104260 0.920050
C296 C 0.275000 0.191960 0.895670
C297 C 0.599020 0.241200 0.770000
C298 C 0.308110 0.277350 0.936200
C299 C 0.648850 0.167000 0.806900
C300 C 0.380940 0.282300 1.003600
C301 C 0.659160 -0.002030 0.816120
C302 C 0.419090 0.201770 1.029000
C303 C 0.622420 -0.095700 0.783700
C304 C 0.387040 0.109740 0.989240
C305 C 0.425830 0.025170 1.016230
C306 C 0.402930 1.236500 0.468900
C307 C 0.393950 -0.063540 0.977930
C308 C 0.433860 -0.149880 1.006800
C309 C 0.099020 0.741200 0.770000
C310 C 0.402930 -0.236500 0.968900
C311 C 0.148850 0.667000 0.806900
C312 C 0.329700 -0.243150 0.900700
C313 C 0.159160 0.497970 0.816120
C314 C 0.289480 -0.162890 0.871160
C315 C 0.122420 0.404300 0.783700
C316 C 0.319420 -0.069970 0.908300
C317 C 0.329700 1.243150 0.400700
C318 C 0.829700 0.743150 0.400700
C319 C 0.599020 0.758800 0.270000
C320 C 0.648850 0.833000 0.306900
C321 C 0.659160 1.002030 0.316120
C322 C 0.701650 0.490960 0.308670
C323 C 0.663520 0.495340 0.196640
C324 C 0.622420 1.095700 0.283700
C325 C 0.561160 0.499100 0.180580
C326 C 0.662230 0.490660 0.349900
C327 C 0.289480 1.162890 0.371160
C328 C 0.779570 0.485420 0.380270
C329 C 0.812220 0.395740 0.420050
C330 C 0.775000 0.308040 0.395670
C331 C 0.099020 0.258800 0.270000
C332 C 0.808110 0.222650 0.436200
C333 C 0.148850 0.333000 0.306900
C334 C 0.880940 0.217700 0.503600
C335 C 0.159160 0.502030 0.316120
C336 C 0.919090 0.298230 0.529000
C337 C 0.122420 0.595700 0.283700
C338 C 0.887040 0.390260 0.489240
C339 C 0.925830 0.474830 0.516230
C340 C 0.606050 1.063540 0.022070
C341 C 0.893950 0.563540 0.477930
C342 C 0.933860 0.649880 0.506800
C343 C 0.187780 0.604260 0.579950
C344 C 0.902930 0.736500 0.468900
N345 N 0.491430 0.504740 0.116960
N346 N 0.592840 0.494920 0.288940
N347 N 0.594180 0.498820 0.131250
N348 N -0.008570 -0.004740 0.616960
N349 N 0.092840 0.005080 0.788940
N350 N 0.094180 0.001180 0.631250
N351 N 0.094180 0.998820 0.131250
N352 N 0.092840 0.994920 0.288940
N353 N -0.008570 1.004740 0.116960
N354 N 0.491430 0.495260 0.616960
N355 N 0.592840 0.505080 0.788940
N356 N 0.594180 0.501180 0.631250
N357 N 1.008570 -0.004740 0.883040
N358 N 0.907160 0.005080 0.711060
N359 N 0.905820 0.001180 0.868750
N360 N 0.508570 0.495260 0.883040
N361 N 0.407160 0.505080 0.711060
N362 N 0.405820 0.501180 0.868750
N363 N 1.008570 1.004740 0.383040
N364 N 0.907160 0.994920 0.211060
N365 N 0.905820 0.998820 0.368750
N366 N 0.508570 0.504740 0.383040
N367 N 0.407160 0.494920 0.211060
N368 N 0.405820 0.498820 0.368750
O369 O 0.383580 0.927270 0.224880
O370 O 0.278410 0.992090 0.126600
O371 O 0.883580 0.427270 0.224880
O372 O 0.778410 0.492090 0.126600
O373 O 0.383580 0.072730 0.724880
O374 O 0.278410 0.007910 0.626600
O375 O 0.883580 0.572730 0.724880
O376 O 0.778410 0.507910 0.626600
O377 O 0.616420 0.072730 0.775120
O378 O 0.721590 0.007910 0.873400
O379 O 0.116420 0.572730 0.775120
O380 O 0.221590 0.507910 0.873400
O381 O 0.616420 0.927270 0.275120
O382 O 0.721590 0.992090 0.373400
O383 O 0.116420 0.427270 0.275120
O384 O 0.221590 0.492090 0.373400

#END
