./ABIJON_from_POSCAR.cif_generated_by_CrystalShift
_symmetry_cell_setting triclinic
_symmetry_space_group_name_H-M 'P 1'
loop_
_symmetry_equiv_pos_site_id
_symmetry_equiv_pos_as_xyz
1 x,y,z
_cell_length_a 17.627800
_cell_length_b 8.027800
_cell_length_c 12.339800
_cell_angle_alpha 90.000000
_cell_angle_beta 104.078000
_cell_angle_gamma 90.000000
_cell_volume 1693.788034
loop_
_atom_site_label
_atom_site_type_symbol
_atom_site_fract_x
_atom_site_fract_y
_atom_site_fract_z
H1 H 0.760600 0.652200 0.852000
H2 H 0.421400 0.691300 0.693500
H3 H 0.468400 0.593700 0.801900
H4 H 0.056100 0.644800 0.341700
H5 H 0.436900 0.410500 0.648900
H6 H 0.345800 0.449700 0.632600
H7 H 0.392800 0.351900 0.741400
H8 H 0.104700 0.492100 0.410800
H9 H 0.269100 0.536300 0.934000
H10 H 0.299600 0.405600 0.856400
H11 H 0.207400 0.700800 0.410000
H12 H 0.362600 0.356300 1.045200
H13 H 0.395200 0.543200 1.057800
H14 H 0.426200 0.413700 0.979900
H15 H 0.427600 0.498400 0.309700
H16 H 0.352600 0.873900 0.973100
H17 H 0.438600 0.822500 0.965300
H18 H 0.341500 0.446600 0.317900
H19 H 0.415700 1.103600 0.915700
H20 H 0.341500 1.053400 0.817900
H21 H 0.427600 1.001600 0.809700
H22 H 0.415700 0.396400 0.415700
H23 H 0.438600 0.677500 0.465300
H24 H 0.352600 0.626100 0.473100
H25 H 0.207400 0.799200 0.910000
H26 H 0.426200 1.086300 0.479900
H27 H 0.104700 1.007900 0.910800
H28 H 0.056100 0.855200 0.841700
H29 H 0.395200 0.956800 0.557800
H30 H 0.028100 1.056800 0.703200
H31 H 0.362600 1.143700 0.545200
H32 H 0.097500 1.279900 0.797000
H33 H 0.179400 1.186000 0.812400
H34 H 0.299600 1.094400 0.356400
H35 H 0.169400 1.397800 0.678000
H36 H 0.089800 1.318400 0.605000
H37 H 0.269100 0.963700 0.434000
H38 H 0.197900 1.236700 0.530600
H39 H 0.239400 1.152200 0.648000
H40 H 0.392800 1.148100 0.241400
H41 H 0.345800 1.050300 0.132600
H42 H 0.436900 1.089500 0.148900
H43 H 0.468400 0.906300 0.301900
H44 H 0.421400 0.808700 0.193500
H45 H 0.097500 0.220100 0.297000
H46 H 0.239400 0.347800 0.148000
H47 H 0.179400 0.314000 0.312400
H48 H 0.578600 0.191300 0.806500
H49 H 0.531600 0.093700 0.698100
H50 H 0.760600 -0.152200 0.352000
H51 H 0.563100 -0.089500 0.851100
H52 H 0.654200 -0.050300 0.867400
H53 H 0.607200 -0.148100 0.758600
H54 H 0.802100 -0.236700 0.469400
H55 H 0.730900 0.036300 0.566000
H56 H 0.700400 -0.094400 0.643600
H57 H 0.910200 -0.318400 0.395000
H58 H 0.637400 -0.143700 0.454800
H59 H 0.604800 0.043200 0.442200
H60 H 0.573800 -0.086300 0.520100
H61 H 0.830600 -0.397800 0.322000
H62 H 0.647400 0.373900 0.526900
H63 H 0.561400 0.322500 0.534700
H64 H 0.820600 -0.186000 0.187600
H65 H 0.584300 0.603600 0.584300
H66 H 0.658500 0.553400 0.682100
H67 H 0.572400 0.501600 0.690300
H68 H 0.902500 -0.279900 0.203000
H69 H 0.971900 -0.056800 0.296800
H70 H 0.943900 0.144800 0.158300
H71 H 0.792600 0.299200 0.590000
H72 H 0.895300 -0.007900 0.089200
H73 H 0.895300 0.507900 0.589200
H74 H 0.943900 0.355200 0.658300
H75 H 0.792600 0.200800 0.090000
H76 H 0.971900 0.556800 0.796800
H77 H 0.572400 -0.001600 0.190300
H78 H 0.902500 0.779900 0.703000
H79 H 0.820600 0.686000 0.687600
H80 H 0.658500 -0.053400 0.182100
H81 H 0.830600 0.897800 0.822000
H82 H 0.910200 0.818400 0.895000
H83 H 0.584300 -0.103600 0.084300
H84 H 0.802100 0.736700 0.969400
H85 H 0.028100 0.443200 0.203200
H86 H 0.561400 0.177500 0.034700
H87 H 0.647400 0.126100 0.026900
H88 H 0.573800 0.586300 0.020100
H89 H 0.197900 0.263300 0.030600
H90 H 0.604800 0.456800 -0.057800
H91 H 0.089800 0.181600 0.105000
H92 H 0.169400 0.102200 0.178000
H93 H 0.637400 0.643700 -0.045200
H94 H 0.578600 0.308700 0.306500
H95 H 0.531600 0.406300 0.198100
H96 H 0.700400 0.594400 0.143600
H97 H 0.563100 0.589500 0.351100
H98 H 0.654200 0.550300 0.367400
H99 H 0.607200 0.648100 0.258600
H100 H 0.730900 0.463700 0.066000
C101 C 0.684830 0.497900 0.093100
C102 C 0.603790 0.560600 0.312600
C103 C 0.619340 0.550900 -0.006400
C104 C 0.583330 0.395200 0.251300
C105 C 0.188230 0.320900 0.096900
C106 C 0.934000 0.292900 0.890500
C107 C 0.613880 0.145200 0.079500
C108 C 0.878320 0.425800 0.842200
C109 C 0.857350 0.522500 0.938000
C110 C 0.606620 -0.017900 0.139400
C111 C 0.811770 0.679100 0.903100
C112 C 0.859110 0.792000 0.843700
C113 C 0.872050 0.705200 0.740200
C114 C 0.742800 0.235300 0.285400
C115 C 0.810110 0.155400 0.255900
C116 C 0.825610 0.152500 0.154900
C117 C 0.914710 0.539300 0.764200
C118 C 0.900820 0.064600 0.155600
C119 C 0.900820 0.435400 0.655600
C120 C 0.825610 0.347500 0.654900
C121 C 0.914710 -0.039300 0.264200
C122 C 0.810110 0.344600 0.755900
C123 C 0.872050 -0.205200 0.240200
C124 C 0.742800 0.264700 0.785400
C125 C 0.606620 0.517900 0.639400
C126 C 0.859110 -0.292000 0.343700
C127 C 0.613880 0.354800 0.579500
C128 C 0.619340 -0.050900 0.493600
C129 C 0.811770 -0.179100 0.403100
C130 C 0.684830 0.002100 0.593100
C131 C 0.603790 -0.060600 0.812600
C132 C 0.857350 -0.022500 0.438000
C133 C 0.878320 0.074200 0.342200
C134 C 0.934000 0.207100 0.390500
C135 C 0.140890 0.208000 0.156300
C136 C 0.583330 0.104800 0.751300
C137 C 0.142650 0.477500 0.062000
C138 C 0.127950 0.294800 0.259800
C139 C 0.416670 0.895200 0.248700
C140 C 0.121680 0.574200 0.157800
C141 C 0.066000 0.707100 0.109500
C142 C 0.396210 1.060600 0.187400
C143 C 0.066000 0.792900 0.609500
C144 C 0.121680 0.925800 0.657800
C145 C 0.142650 1.022500 0.562000
C146 C 0.315170 0.997900 0.406900
C147 C 0.188230 1.179100 0.596900
C148 C 0.140890 1.292000 0.656300
C149 C 0.380660 1.050900 0.506400
C150 C 0.127950 1.205200 0.759800
C151 C 0.085290 1.039300 0.735800
C152 C 0.099180 0.935400 0.844400
C153 C 0.386120 0.645200 0.420500
C154 C 0.174390 0.847500 0.845100
C155 C 0.189890 0.844600 0.744100
C156 C 0.393380 0.482100 0.360600
C157 C 0.257200 0.764700 0.714600
C158 C 0.393380 1.017900 0.860600
C159 C 0.386120 0.854800 0.920500
C160 C 0.257200 0.735300 0.214600
C161 C 0.189890 0.655400 0.244100
C162 C 0.174390 0.652500 0.345100
C163 C 0.380660 0.449100 1.006400
C164 C 0.099180 0.564600 0.344400
C165 C 0.315170 0.502100 0.906900
C166 C 0.396210 0.439400 0.687400
C167 C 0.085290 0.460700 0.235800
C168 C 0.416670 0.604800 0.748700
N169 N 0.976950 0.188200 0.923400
N170 N 0.023050 0.811800 0.076600
N171 N 0.023050 0.688200 0.576600
N172 N 0.976950 0.311800 0.423400
O173 O 0.882410 0.480100 1.034270
O174 O 0.740920 0.240000 0.384510
O175 O 0.117590 0.519900 -0.034270
O176 O 0.882410 0.019900 0.534270
O177 O 0.117590 0.980100 0.465730
O178 O 0.259080 0.760000 0.615490
O179 O 0.740920 0.260000 0.884510
O180 O 0.259080 0.740000 0.115490
Si181 Si 0.655310 0.177630 0.673280
Si182 Si 0.655310 0.322370 0.173280
Si183 Si 0.344690 0.677630 0.826720
Si184 Si 0.344690 0.822370 0.326720

#END
