./ABILOO_from_POSCAR.cif_generated_by_CrystalShift
_symmetry_cell_setting triclinic
_symmetry_space_group_name_H-M 'P 1'
loop_
_symmetry_equiv_pos_site_id
_symmetry_equiv_pos_as_xyz
1 x,y,z
_cell_length_a 10.175100
_cell_length_b 10.678300
_cell_length_c 11.649300
_cell_angle_alpha 96.462000
_cell_angle_beta 107.570000
_cell_angle_gamma 109.165000
_cell_volume 1107.875804
loop_
_atom_site_label
_atom_site_type_symbol
_atom_site_fract_x
_atom_site_fract_y
_atom_site_fract_z
H1 H 0.660800 0.269800 0.546700
H2 H 0.633600 0.121600 0.478400
H3 H 0.934200 -0.125400 0.739000
H4 H 1.088900 -0.000300 0.804200
H5 H 1.006100 -0.034100 0.658800
H6 H 0.854900 0.755400 0.359100
H7 H 0.830000 0.250800 1.051400
H8 H 1.075900 0.745400 0.478700
H9 H 0.919100 0.387100 1.021100
H10 H 1.001100 0.290600 1.071800
H11 H 0.872500 0.543600 0.686300
H12 H 0.787000 0.024900 0.575500
H13 H 0.648900 0.550300 0.566300
H14 H 1.010100 0.123600 0.939900
H15 H 1.206100 0.729800 0.730600
H16 H 1.195000 0.619700 0.621200
H17 H 1.125700 0.572400 0.721300
H18 H 0.840600 0.558100 1.108300
H19 H 0.719300 0.617100 1.117800
H20 H 0.737400 0.583800 0.988800
H21 H 0.647900 0.935100 0.006100
H22 H 0.453400 0.271000 1.284500
H23 H 0.343400 0.126100 1.196700
H24 H 0.419200 0.550300 -0.191500
H25 H 0.299300 0.254500 1.185000
H26 H 0.524200 0.050000 0.797200
H27 H 0.630500 1.018200 0.186200
H28 H 0.612300 0.911000 0.269600
H29 H 0.475800 0.950000 0.202800
H30 H 0.387700 0.089000 0.730400
H31 H 0.700700 0.745500 -0.185000
H32 H 0.656600 0.873900 -0.196700
H33 H 0.546600 0.729000 -0.284500
H34 H 0.369500 -0.018200 0.813800
H35 H 0.262600 0.416200 0.011200
H36 H 0.280700 0.382900 -0.117800
H37 H 0.159400 0.441900 -0.108300
H38 H 0.580800 0.449700 1.191500
H39 H 0.352100 0.064900 0.993900
H40 H -0.125700 0.427600 0.278700
H41 H -0.010100 0.876400 0.060100
H42 H -0.195000 0.380300 0.378800
H43 H -0.206100 0.270200 0.269400
H44 H 0.213000 0.975100 0.424500
H45 H 0.351100 0.449700 0.433700
H46 H 0.127500 0.456400 0.313700
H47 H -0.001100 0.709400 -0.071800
H48 H 0.080900 0.612900 -0.021100
H49 H 0.170000 0.749200 -0.051400
H50 H -0.075900 0.254600 0.521300
H51 H -0.006100 1.034100 0.341200
H52 H -0.088900 1.000300 0.195800
H53 H 0.065800 1.125400 0.261000
H54 H 0.145100 0.244600 0.640900
H55 H 0.366400 0.878400 0.521600
H56 H 0.472100 0.858300 0.451600
H57 H 0.339200 0.730200 0.453300
H58 H 0.527900 0.141700 0.548400
C59 C 0.521000 0.334740 0.696320
C60 C 0.410000 0.342100 0.627680
C61 C 0.272200 0.345260 0.550290
C62 C 0.142600 0.287800 0.574730
C63 C 0.370700 0.825500 0.450360
C64 C 0.010400 0.293600 0.502890
C65 C 0.007600 1.033500 0.262300
C66 C 0.001900 0.355500 0.404170
C67 C 0.130900 0.413400 0.380050
C68 C 0.092300 0.706900 -0.020010
C69 C 0.264700 0.409300 0.451560
C70 C 0.268400 0.840700 0.333020
C71 C -0.144200 0.358700 0.325800
C72 C 0.192500 0.925800 0.344800
C73 C 0.088700 0.941500 0.245200
C74 C 0.061000 0.868300 0.129140
C75 C 0.593170 0.310400 0.933530
C76 C 0.486400 0.178800 0.916030
C77 C 0.421500 0.153000 1.004570
C78 C 0.134200 0.783200 0.110650
C79 C 0.455300 0.252600 1.108000
C80 C 0.557800 0.380900 1.122320
C81 C 0.241890 0.769900 0.213310
C82 C 0.628400 0.412470 1.037900
C83 C 0.437600 0.064700 0.804370
C84 C 0.258500 0.444360 -0.065680
C85 C 0.618800 0.776600 -0.202000
C86 C 0.562400 0.935300 0.195630
C87 C 0.381200 0.223400 1.202000
C88 C 0.371600 0.587530 -0.037900
C89 C 0.442200 0.619100 -0.122320
C90 C 0.544700 0.747400 -0.108000
C91 C 0.741500 0.555640 1.065680
C92 C 0.578500 0.847000 -0.004570
C93 C 0.513600 0.821200 0.083970
C94 C 0.406830 0.689600 0.066470
C95 C 0.758110 0.230100 0.786690
C96 C 0.865800 0.216800 0.889350
C97 C 0.939000 0.131700 0.870860
C98 C 1.144200 0.641300 0.674200
C99 C 0.911300 0.058500 0.754800
C100 C 0.807500 0.074200 0.655200
C101 C 0.735300 0.590700 0.548440
C102 C 0.731600 0.159300 0.666980
C103 C 0.907700 0.293100 1.020010
C104 C 0.869100 0.586600 0.619950
C105 C 0.998100 0.644500 0.595830
C106 C 0.989600 0.706400 0.497110
C107 C 0.992400 -0.033500 0.737700
C108 C 0.857400 0.712200 0.425270
C109 C 0.727800 0.654740 0.449710
C110 C 0.590000 0.657900 0.372320
C111 C 0.629300 0.174500 0.549640
C112 C 0.479000 0.665260 0.303680
P113 P 0.684560 0.361110 0.821840
P114 P 0.315440 0.638890 0.178160

#END
