./ABILAC11_from_POSCAR.cif_generated_by_CrystalShift
_symmetry_cell_setting triclinic
_symmetry_space_group_name_H-M 'P 1'
loop_
_symmetry_equiv_pos_site_id
_symmetry_equiv_pos_as_xyz
1 x,y,z
_cell_length_a 6.647400
_cell_length_b 11.770000
_cell_length_c 35.166000
_cell_angle_alpha 90.000000
_cell_angle_beta 90.000000
_cell_angle_gamma 90.000000
_cell_volume 2751.384253
loop_
_atom_site_label
_atom_site_type_symbol
_atom_site_fract_x
_atom_site_fract_y
_atom_site_fract_z
H1 H 0.710400 0.375900 0.551500
H2 H 0.897900 0.359600 0.577900
H3 H 1.308400 0.291300 0.325500
H4 H 1.318900 0.385400 0.357000
H5 H 0.620400 0.167100 1.185900
H6 H 0.404200 0.137800 1.171000
H7 H 0.431700 0.224800 1.204400
H8 H 1.330400 0.256700 0.368300
H9 H 0.949800 0.056500 0.311500
H10 H 0.792700 0.322800 1.143100
H11 H 1.130900 0.139400 0.304200
H12 H 0.648200 0.506300 1.120400
H13 H 0.827600 0.179500 0.359400
H14 H 0.610600 0.340200 1.062900
H15 H 0.801200 0.415900 1.069100
H16 H 1.044300 0.136600 0.369500
H17 H 0.425900 0.501300 1.044500
H18 H 0.660800 0.612500 0.406200
H19 H 0.777200 0.463400 1.000200
H20 H 0.605600 0.494200 0.423800
H21 H 0.627100 0.601000 0.450100
H22 H 1.231400 0.426300 0.449000
H23 H 1.226800 0.495600 0.487100
H24 H 0.387500 0.660800 0.910400
H25 H 1.184700 0.364600 0.487500
H26 H 0.692200 0.328900 0.407300
H27 H 0.708100 0.614800 0.832900
H28 H 0.826600 0.223700 0.417600
H29 H 0.886300 0.285300 0.475600
H30 H 0.619900 0.828500 0.758700
H31 H 0.687800 0.354400 0.469400
H32 H 0.900100 0.936600 0.762200
H33 H 1.071200 0.910600 0.791600
H34 H 0.870200 0.967200 0.805300
H35 H 1.148300 0.645000 0.443100
H36 H 0.763400 0.640600 0.736900
H37 H 0.697700 0.528100 0.757300
H38 H 0.864900 0.605100 0.775300
H39 H 0.949300 0.712900 0.433900
H40 H 0.279200 0.707900 0.771500
H41 H 0.337300 0.583600 0.759900
H42 H 0.404700 0.686000 0.734400
H43 H 1.071700 0.669400 0.504900
H44 H 0.495700 0.374200 0.867700
H45 H 0.851800 0.709600 0.495100
H46 H 0.343500 0.500700 0.817900
H47 H 0.557300 0.452100 0.808000
H48 H 0.942700 0.547900 0.308000
H49 H 1.156500 0.499300 0.317900
H50 H 0.648200 0.290400 0.995100
H51 H 0.428300 0.330600 1.004900
H52 H 1.004300 0.625800 0.367700
H53 H 0.550700 0.287100 0.933900
H54 H 0.351700 0.355000 0.943100
H55 H 1.095300 0.314000 0.234400
H56 H 0.812200 0.645600 0.969400
H57 H 0.613700 0.714700 0.975600
H58 H 1.162700 0.416400 0.259900
H59 H 0.673400 0.776300 0.917600
H60 H 0.807800 0.671100 0.907300
H61 H 1.220800 0.292100 0.271500
H62 H 0.315300 0.635400 0.987500
H63 H 0.273200 0.504400 0.987100
H64 H 0.268600 0.573700 0.949000
H65 H 0.635100 0.394900 0.275300
H66 H 0.872900 0.399000 0.950100
H67 H 0.894400 0.505800 0.923800
H68 H 0.839200 0.387500 0.906200
H69 H 0.802300 0.471900 0.257300
H70 H 0.455700 0.863400 0.869500
H71 H 0.672400 0.820500 0.859400
H72 H 0.736600 0.359400 0.236900
H73 H 0.369100 0.860600 0.804200
H74 H 0.550200 0.943500 0.811500
H75 H 0.629800 0.032800 0.305300
H76 H 0.169600 0.743300 0.868300
H77 H 0.181100 0.614600 0.857000
H78 H 0.191600 0.708700 0.825500
H79 H 0.428800 0.089400 0.291600
H80 H 0.602100 0.640400 1.077900
H81 H 0.590100 0.675100 1.034900
H82 H 0.789600 0.624100 1.051500
H83 H 0.599900 0.063400 0.262200
H84 H 0.880100 0.171500 0.258700
H85 H 0.791900 0.385200 0.332900
H86 H 1.112500 0.339200 0.410400
H87 H 0.120400 1.332900 -0.185900
H88 H -0.095800 1.362200 -0.171000
H89 H -0.068300 1.275200 -0.204400
H90 H 0.722800 0.536600 0.500200
H91 H 1.074100 0.498700 0.544500
H92 H 0.292700 1.177200 -0.143100
H93 H 0.698800 0.584100 0.569100
H94 H 0.148200 0.993700 -0.120400
H95 H 0.889400 0.659800 0.562900
H96 H 0.110600 1.159800 -0.062900
H97 H 0.301200 1.084100 -0.069100
H98 H 0.851800 0.493700 0.620400
H99 H -0.074100 0.998700 -0.044500
H100 H 0.707300 0.677200 0.643100
H101 H 0.277200 1.036600 -0.000200
H102 H 1.068300 0.775200 0.704400
H103 H 1.095800 0.862200 0.671000
H104 H 0.879600 0.832900 0.685900
H105 H 0.210400 0.124100 0.448500
H106 H -0.112500 0.839200 0.089600
H107 H 0.409900 0.175100 0.465100
H108 H 0.397900 0.140400 0.422100
H109 H 0.208100 0.885200 0.167100
H110 H 0.808400 0.208700 0.674500
H111 H 0.818900 0.114600 0.643000
H112 H 0.119900 0.671500 0.241300
H113 H 0.830400 0.243300 0.631700
H114 H 0.400100 0.563400 0.237800
H115 H 0.571200 0.589400 0.208400
H116 H 0.370200 0.532800 0.194700
H117 H 0.449800 0.443500 0.688500
H118 H 0.263400 0.859400 0.263100
H119 H 0.197700 0.971900 0.242700
H120 H 0.364900 0.894900 0.224700
H121 H 0.630900 0.360600 0.695800
H122 H -0.220800 0.792100 0.228500
H123 H -0.162700 0.916400 0.240100
H124 H -0.095300 0.814000 0.265600
H125 H 0.327600 0.320500 0.640600
H126 H -0.004300 1.125800 0.132300
H127 H 0.544300 0.363400 0.630500
H128 H -0.156500 0.999300 0.182100
H129 H 0.057300 1.047900 0.192000
H130 H 0.160800 -0.112500 0.593800
H131 H 0.105600 0.005800 0.576200
H132 H 0.148200 1.209600 0.004900
H133 H -0.071700 1.169400 -0.004900
H134 H 0.127100 -0.101000 0.549900
H135 H 0.050700 1.212900 0.066100
H136 H -0.148300 1.145000 0.056900
H137 H 0.731400 0.073700 0.551000
H138 H 0.312200 0.854400 0.030600
H139 H 0.113700 0.785300 0.024400
H140 H 0.726800 0.004400 0.512900
H141 H 0.173400 0.723700 0.082400
H142 H 0.307800 0.828900 0.092700
H143 H 0.684700 0.135400 0.512500
H144 H -0.184700 0.864600 0.012500
H145 H -0.226800 0.995600 0.012900
H146 H -0.231400 0.926300 0.051000
H147 H 0.192200 0.171100 0.592700
H148 H 0.372900 1.101000 0.049900
H149 H 0.394400 0.994200 0.076200
H150 H 0.339200 1.112500 0.093800
H151 H 0.326600 0.276300 0.582400
H152 H -0.044300 0.636600 0.130500
H153 H 0.172400 0.679500 0.140600
H154 H 0.386300 0.214700 0.524400
H155 H -0.130900 0.639400 0.195800
H156 H 0.050200 0.556500 0.188500
H157 H 0.187800 0.145600 0.530600
H158 H -0.330400 0.756700 0.131700
H159 H -0.318900 0.885400 0.143000
H160 H -0.308400 0.791300 0.174500
H161 H 0.648300 -0.145000 0.556900
H162 H 0.102100 0.859600 -0.077900
H163 H 0.090100 0.824900 -0.034900
H164 H 0.289600 0.875900 -0.051500
H165 H 0.449300 -0.212900 0.566100
H166 H 0.571700 -0.169400 0.495100
H167 H 0.351800 -0.209600 0.504900
H168 H 0.442700 -0.047900 0.692000
H169 H 0.379600 -0.332900 0.314100
H170 H 0.595800 -0.362200 0.329000
H171 H 0.568300 -0.275200 0.295600
H172 H 0.656500 0.000700 0.682100
H173 H 0.504300 -0.125800 0.632300
H174 H 0.207300 -0.177200 0.356900
H175 H 0.595300 0.186000 0.765600
H176 H 0.351800 0.006300 0.379600
H177 H 0.662700 0.083600 0.740100
H178 H 0.389400 -0.159800 0.437100
H179 H 0.198800 -0.084100 0.430900
H180 H 0.720800 0.207900 0.728500
H181 H 0.574100 0.001300 0.455500
H182 H 0.135100 0.105100 0.724700
H183 H 0.222800 -0.036600 0.499800
H184 H 0.302300 0.028100 0.742700
H185 H 0.236600 0.140600 0.763100
H186 H 0.129800 0.467200 0.694700
H187 H -0.071200 0.410600 0.708400
H188 H 0.612500 0.160800 0.589600
H189 H 0.099900 0.436600 0.737800
H190 H 0.380100 0.328500 0.741300
H191 H 0.291900 0.114800 0.667100
H192 H 0.909900 0.324900 0.534900
C193 C 0.362300 0.296800 0.715800
C194 C 0.431700 0.121100 0.675640
C195 C 0.071700 0.413500 0.712140
C196 C 0.540600 0.193100 0.645000
C197 C 0.492200 0.143800 0.604680
C198 C 0.477600 0.015600 0.603810
C199 C 0.258400 0.105000 0.738900
C200 C 0.404100 -0.037300 0.566790
C201 C 0.440500 0.043300 0.532310
C202 C 0.369900 -0.032500 0.498600
C203 C 0.618800 0.161300 0.739950
C204 C 0.427000 0.002100 0.457430
C205 C 0.344500 -0.084900 0.429350
C206 C 0.404700 -0.066700 0.388480
C207 C 0.499400 -0.047300 0.635120
C208 C 0.340500 -0.158400 0.362000
C209 C 0.516400 0.000000 0.674400
C210 C 0.497900 -0.209500 0.346690
C211 C 0.511600 -0.303100 0.318940
C212 C 0.676900 -0.150100 0.360500
C213 C 0.452300 -0.151600 0.509820
C214 C 0.854600 0.378500 0.552660
C215 C 0.488400 0.196900 1.181060
C216 C 0.503900 -0.147400 0.552940
C217 C 0.502100 0.290500 1.153310
C218 C 0.145400 0.878500 -0.052660
C219 C 0.324900 0.155000 0.539450
C220 C -0.271300 0.810400 0.148920
C221 C 0.009100 0.635500 0.188150
C222 C 0.319100 0.194000 0.581420
C223 C 0.032000 0.683300 0.148050
C224 C 0.322100 1.063700 0.072190
C225 C 0.667300 0.066400 0.526620
C226 C -0.167300 0.933600 0.026620
C227 C 0.180900 0.806000 0.081420
C228 C 0.175100 0.845000 0.039450
C229 C 0.177900 -0.063700 0.572190
C230 C -0.003900 1.147400 0.052940
C231 C 0.047700 1.151600 0.009820
C232 C -0.176900 1.150100 -0.139500
C233 C 0.468000 0.316700 0.648050
C234 C -0.016400 1.000000 0.174400
C235 C 0.000600 1.047300 0.135120
C236 C 0.490900 0.364500 0.688150
C237 C -0.118800 0.838700 0.239950
C238 C 0.241600 0.895000 0.238900
C239 C 0.771300 0.189600 0.648920
C240 C 0.428300 0.586500 0.212140
C241 C 0.137700 0.703200 0.215800
C242 C 0.078800 0.828600 0.216700
C243 C 0.354600 0.121500 0.447340
C244 C 0.068300 0.878900 0.175640
C245 C -0.040600 0.806900 0.145000
C246 C 0.007800 0.856200 0.104680
C247 C 1.271300 0.310400 0.351080
C248 C 0.659500 0.341600 1.138000
C249 C 0.595300 0.433300 1.111520
C250 C 1.011600 0.803100 0.681060
C251 C 0.022400 0.984400 0.103810
C252 C 0.095900 1.037300 0.066790
C253 C 0.059500 0.956700 0.032310
C254 C 0.997900 0.709500 0.653310
C255 C 0.840500 0.658400 0.638000
C256 C 0.130100 1.032500 -0.001400
C257 C 0.904700 0.566700 0.611520
C258 C 0.073000 0.997900 -0.042570
C259 C 0.844500 0.584900 0.570650
C260 C 0.155500 1.084900 -0.070650
C261 C 0.095300 1.066700 -0.111520
C262 C 0.927000 0.497900 0.542570
C263 C 0.159500 1.158400 -0.138000
C264 C 0.869900 0.532500 0.501400
C265 C 0.002100 1.209500 -0.153310
C266 C 0.940500 0.456700 0.467690
C267 C 0.904100 0.537300 0.433210
C268 C 0.977600 0.484400 0.396190
C269 C 0.992200 0.356200 0.395320
C270 C -0.011600 1.303100 -0.181060
C271 C 1.040600 0.306900 0.355000
C272 C 0.931700 0.378900 0.324360
C273 C 0.990900 0.135500 0.311850
C274 C 0.921200 0.328600 0.283300
C275 C 0.862300 0.203200 0.284200
C276 C 0.655500 0.415100 1.070650
C277 C 0.571700 0.086500 0.287860
C278 C 0.573000 0.502100 1.042570
C279 C 0.645400 0.621500 1.052660
C280 C 0.228700 0.689600 0.851080
C281 C 0.758400 0.395000 0.261100
C282 C 0.509100 0.864500 0.811850
C283 C 0.532000 0.816700 0.851950
C284 C 0.822100 0.436300 0.927810
C285 C 1.118800 0.338700 0.260050
C286 C 0.332700 0.566400 0.973380
C287 C 0.680900 0.694000 0.918580
C288 C 0.675100 0.655000 0.960550
C289 C 0.999400 0.547300 0.364880
C290 C 0.496100 0.352600 0.947060
C291 C 1.016400 0.500000 0.325600
C292 C 0.547700 0.348400 0.990180
C293 C 0.323100 0.349900 1.139500
C294 C 1.176900 0.650100 0.639500
C295 C 0.952300 0.651600 0.490180
C296 C 0.483600 0.500000 0.825600
C297 C 0.500600 0.452700 0.864880
C298 C 1.003900 0.647400 0.447060
C299 C 0.381200 0.661300 0.760050
C300 C 0.741600 0.605000 0.761100
C301 C 0.824900 0.345000 0.460550
C302 C 0.928300 0.913500 0.787860
C303 C 0.637700 0.796800 0.784200
C304 C 0.819100 0.306000 0.418580
C305 C 0.578800 0.671400 0.783300
C306 C 0.568300 0.621100 0.824360
C307 C 1.167300 0.433600 0.473380
C308 C 0.459400 0.693100 0.855000
C309 C 0.507800 0.643800 0.895320
C310 C 0.522400 0.515600 0.896190
C311 C 0.677900 0.563700 0.427810
C312 C 0.595900 0.462700 0.933210
C313 C 0.559500 0.543300 0.967690
C314 C 0.630100 0.467500 1.001400
C315 C 0.968000 0.183300 0.351950
C316 C 0.421200 0.171400 0.716700
O317 O -0.121900 1.067090 -0.114930
O318 O -0.351300 1.165900 -0.147500
O319 O 1.351300 0.665900 0.647500
O320 O 1.121900 0.567090 0.614930
O321 O 0.654600 0.194470 0.294390
O322 O 0.154600 0.305530 0.705610
O323 O 0.621900 -0.067090 0.385070
O324 O 0.148700 0.334100 1.147500
O325 O 0.851300 -0.165900 0.352500
O326 O 0.378100 0.432910 1.114930
O327 O 0.345400 0.694470 0.205610
O328 O 0.845400 0.805530 0.794390

#END
