
#######################################################################
#
#                 Cambridge Crystallographic Data Centre
#                                CCDC 
#
#######################################################################
#
# If this CIF has been generated from an entry in the Cambridge 
# Structural Database, then it will include bibliographic, chemical, 
# crystal, experimental, refinement or atomic coordinate data resulting 
# from the CCDC's data processing and validation procedures.
#
#######################################################################

data_ABIMON
_symmetry_cell_setting           triclinic
_symmetry_space_group_name_H-M   'P -1'
_symmetry_Int_Tables_number      2
_space_group_name_Hall           '-P 1'
loop_
_symmetry_equiv_pos_site_id
_symmetry_equiv_pos_as_xyz
1 x,y,z
2 -x,-y,-z
_cell_length_a                   5.0378(5)
_cell_length_b                   9.4623(10)
_cell_length_c                   14.2196(15)
_cell_angle_alpha                105.792(2)
_cell_angle_beta                 98.797(2)
_cell_angle_gamma                92.324(2)
_cell_volume                     642.169
loop_
_atom_site_label
_atom_site_type_symbol
_atom_site_fract_x
_atom_site_fract_y
_atom_site_fract_z
O1 O 0.8726(3) 0.60384(16) 0.31510(10)
H1 H 0.9068 0.5787 0.2564
C1 C 0.6846(4) 0.6915(2) 0.30565(14)
H2 H 0.6272 0.7157 0.2392
O2 O 0.5774(3) 0.75356(18) 0.37278(12)
O1 O 0.1274(3) 0.39616(16) 0.68490(10)
H1 H 0.0932 0.4213 0.7436
C1 C 0.3154(4) 0.3085(2) 0.69435(14)
H2 H 0.3728 0.2843 0.7608
O2 O 0.4226(3) 0.24644(18) 0.62722(12)
O3 O -0.0128(2) 0.51095(14) 0.12707(9)
O4 O 0.5310(3) 0.25345(16) -0.06876(8)
N1 N 0.7456(3) 0.13468(15) 0.08317(10)
N2 N 0.5955(3) 0.25193(14) 0.26788(9)
N3 N 0.2865(3) 0.38584(15) 0.20043(10)
N4 N 0.2573(3) 0.37820(16) 0.03041(10)
H3 H 0.1780 0.4083 -0.0176
C2 C 0.8505(3) 0.08713(17) 0.16279(11)
C3 C 1.0354(3) -0.01993(19) 0.14964(12)
H4 H 1.0849 -0.0575 0.0878
C4 C 1.1435(4) -0.0693(2) 0.22822(13)
H5 H 1.2661 -0.1407 0.2199
C5 C 1.0681(4) -0.0114(2) 0.32115(13)
H6 H 1.1430 -0.0462 0.3736
C6 C 0.8886(3) 0.09439(18) 0.33814(12)
C7 C 0.7770(3) 0.14514(16) 0.25726(11)
C8 C 0.4752(3) 0.29324(16) 0.18860(11)
C9 C 0.1722(3) 0.42741(18) 0.12094(12)
C10 C 0.4557(3) 0.28621(18) 0.01067(12)
C11 C 0.5678(3) 0.23137(18) 0.09597(11)
C12 C 0.8167(4) 0.1602(2) 0.43873(13)
H7 H 0.9674 0.1588 0.4898
H8 H 0.6635 0.1023 0.4473
C13 C 0.7478(4) 0.3174(2) 0.44878(12)
H9 H 0.6921 0.3578 0.5124
H10 H 0.9065 0.3771 0.4465
C14 C 0.5252(4) 0.3235(2) 0.36694(12)
H11 H 0.3604 0.2738 0.3741
H12 H 0.4935 0.4255 0.3718
O3 O 1.0128(2) 0.48905(14) 0.87293(9)
O4 O 0.4690(3) 0.74655(16) 1.06876(8)
N1 N 0.2544(3) 0.86532(15) 0.91683(10)
N2 N 0.4045(3) 0.74807(14) 0.73212(9)
N3 N 0.7135(3) 0.61416(15) 0.79957(10)
N4 N 0.7427(3) 0.62180(16) 0.96959(10)
H3 H 0.8220 0.5917 1.0176
C2 C 0.1495(3) 0.91287(17) 0.83721(11)
C3 C -0.0354(3) 1.01993(19) 0.85036(12)
H4 H -0.0849 1.0575 0.9122
C4 C -0.1435(4) 1.0693(2) 0.77178(13)
H5 H -0.2661 1.1407 0.7801
C5 C -0.0681(4) 1.0114(2) 0.67885(13)
H6 H -0.1430 1.0462 0.6264
C6 C 0.1114(3) 0.90561(18) 0.66186(12)
C7 C 0.2230(3) 0.85486(16) 0.74274(11)
C8 C 0.5248(3) 0.70676(16) 0.81140(11)
C9 C 0.8278(3) 0.57259(18) 0.87906(12)
C10 C 0.5443(3) 0.71379(18) 0.98933(12)
C11 C 0.4322(3) 0.76863(18) 0.90403(11)
C12 C 0.1833(4) 0.8398(2) 0.56127(13)
H7 H 0.0326 0.8412 0.5102
H8 H 0.3365 0.8977 0.5527
C13 C 0.2522(4) 0.6826(2) 0.55122(12)
H9 H 0.3079 0.6422 0.4876
H10 H 0.0935 0.6229 0.5535
C14 C 0.4748(4) 0.6765(2) 0.63306(12)
H11 H 0.6396 0.7262 0.6259
H12 H 0.5065 0.5745 0.6282

#END
