./ABINOS01_from_POSCAR.cif_generated_by_CrystalShift
_symmetry_cell_setting triclinic
_symmetry_space_group_name_H-M 'P 1'
loop_
_symmetry_equiv_pos_site_id
_symmetry_equiv_pos_as_xyz
1 x,y,z
_cell_length_a 6.514000
_cell_length_b 19.453000
_cell_length_c 4.836000
_cell_angle_alpha 90.000000
_cell_angle_beta 90.000000
_cell_angle_gamma 90.000000
_cell_volume 612.802648
loop_
_atom_site_label
_atom_site_type_symbol
_atom_site_fract_x
_atom_site_fract_y
_atom_site_fract_z
H1 H 1.362650 0.652470 0.940090
H2 H 0.134240 0.773700 0.062130
H3 H 0.132420 0.952970 0.643260
H4 H 0.560270 0.939090 0.667060
H5 H 0.716870 0.980970 0.416790
H6 H 1.095790 0.773750 0.577170
H7 H 0.634240 0.726300 0.937870
H8 H 0.632420 0.547030 0.356740
H9 H 1.060270 0.560910 0.332940
H10 H 1.216870 0.519030 0.583210
H11 H 0.863470 0.439200 0.324670
H12 H 0.639340 0.351890 0.514960
H13 H 0.543780 0.314040 -0.085150
H14 H 0.200710 0.355960 0.006440
H15 H 0.283130 0.480970 0.083210
H16 H 0.439730 0.439090 -0.167060
H17 H 0.867580 0.452970 -0.143260
H18 H 0.865760 0.273700 0.437870
H19 H 0.404210 0.226250 0.077170
H20 H 0.137350 0.347530 0.440090
H21 H 0.799290 0.855960 0.493560
H22 H 0.456220 0.814040 0.585150
H23 H 0.360660 0.851890 -0.014960
H24 H 0.136530 0.939200 0.175330
H25 H 0.862650 0.847530 0.059910
H26 H 1.299290 0.644040 0.506440
H27 H 0.956220 0.685960 0.414850
H28 H 0.860660 0.648110 1.014960
H29 H 0.636530 0.560800 0.824670
H30 H 0.595790 0.726250 0.422830
H31 H 0.363470 0.060800 0.675330
H32 H 0.139340 0.148110 0.485040
H33 H 0.043780 0.185960 1.085150
H34 H -0.299290 0.144040 0.993560
H35 H -0.216870 0.019030 0.916790
H36 H -0.060270 0.060910 1.167060
H37 H 0.367580 0.047030 1.143260
H38 H 0.365760 0.226300 0.562130
H39 H -0.095790 0.273750 0.922830
H40 H -0.362650 0.152470 0.559910
C41 C 0.256140 0.917140 0.309790
C42 C 0.318460 0.846260 0.203810
C43 C 0.501470 0.819850 0.366940
C44 C 0.677500 0.871790 0.352140
C45 C 0.599890 0.941530 0.446260
C46 C 1.177500 0.628210 0.647860
C47 C 1.001470 0.680150 0.633060
C48 C 0.818460 0.653740 0.796190
C49 C 0.756140 0.582860 0.690210
C50 C -0.099890 0.058470 0.946260
C51 C -0.177500 0.128210 0.852140
C52 C -0.001470 0.180150 0.866940
C53 C 0.181540 0.153740 0.703810
C54 C 0.243860 0.082860 0.809790
C55 C 0.400110 0.441530 0.053740
C56 C 0.322500 0.371790 0.147860
C57 C 0.498530 0.319850 0.133060
C58 C 0.681540 0.346260 0.296190
C59 C 1.099890 0.558470 0.553740
C60 C 0.743860 0.417140 0.190210
O61 O 0.753760 0.877340 0.077760
O62 O 0.560980 0.754640 0.263310
O63 O 0.145400 0.801990 0.228850
O64 O 0.185170 0.910020 0.581160
O65 O 0.075320 0.037020 0.789510
O66 O 0.685170 0.589980 0.418840
O67 O 0.645400 0.698010 0.771150
O68 O 1.060980 0.745360 0.736690
O69 O 1.253760 0.622660 0.922240
O70 O 0.924680 0.537020 0.710490
O71 O -0.253760 0.122660 0.577760
O72 O -0.060980 0.245360 0.763310
O73 O 0.354600 0.198010 0.728850
O74 O 0.314830 0.089980 1.081160
O75 O 0.575320 0.462980 0.210490
O76 O 0.246240 0.377340 0.422240
O77 O 0.439020 0.254640 0.236690
O78 O 0.854600 0.301990 0.271150
O79 O 0.814830 0.410020 -0.081160
O80 O 0.424680 0.962980 0.289510

#END
