./ABINOR01_from_POSCAR.cif_generated_by_CrystalShift
_symmetry_cell_setting triclinic
_symmetry_space_group_name_H-M 'P 1'
loop_
_symmetry_equiv_pos_site_id
_symmetry_equiv_pos_as_xyz
1 x,y,z
_cell_length_a 5.916000
_cell_length_b 7.813000
_cell_length_c 13.339000
_cell_angle_alpha 90.000000
_cell_angle_beta 99.570000
_cell_angle_gamma 90.000000
_cell_volume 607.970954
loop_
_atom_site_label
_atom_site_type_symbol
_atom_site_fract_x
_atom_site_fract_y
_atom_site_fract_z
H1 H 0.852950 0.021950 0.149110
H2 H 0.264550 1.082850 0.227680
H3 H 0.094830 1.135210 0.456110
H4 H 0.271410 0.643080 0.543040
H5 H 0.396320 0.846700 0.526640
H6 H 0.437420 0.333080 0.299470
H7 H 0.735450 0.582850 0.272320
H8 H 0.905170 0.635210 0.043890
H9 H 0.728590 0.143080 -0.043040
H10 H 0.603680 0.346700 -0.026640
H11 H 1.121620 0.042600 0.653840
H12 H 0.931510 0.245660 0.751000
H13 H 0.486870 0.083090 0.642600
H14 H 0.406910 0.361110 0.561980
H15 H 0.603680 0.153300 0.473360
H16 H 0.728590 0.356920 0.456960
H17 H 0.905170 -0.135210 0.543890
H18 H 0.735450 -0.082850 0.772320
H19 H 0.437420 0.166920 0.799470
H20 H 0.852950 0.478050 0.649110
H21 H 0.593090 0.638890 0.438020
H22 H 0.513130 0.916910 0.357400
H23 H 0.068490 0.754340 0.249000
H24 H -0.121620 0.957400 0.346160
H25 H 0.147050 0.521950 0.350890
H26 H 0.406910 0.138890 0.061980
H27 H 0.486870 0.416910 0.142600
H28 H 0.931510 0.254340 0.251000
H29 H 1.121620 0.457400 0.153840
H30 H 0.562580 0.833080 0.200530
H31 H -0.121620 0.542600 0.846160
H32 H 0.068490 0.745660 0.749000
H33 H 0.513130 0.583090 0.857400
H34 H 0.593090 0.861110 0.938020
H35 H 0.396320 0.653300 1.026640
H36 H 0.271410 0.856920 1.043040
H37 H 0.094830 0.364790 0.956110
H38 H 0.264550 0.417150 0.727680
H39 H 0.562580 0.666920 0.700530
H40 H 0.147050 0.978050 0.850890
C41 C 0.062710 0.931370 0.371420
C42 C 0.170440 0.864280 0.282390
C43 C 0.415690 0.805980 0.321940
C44 C 0.415040 0.669510 0.404300
C45 C 0.295410 0.741660 0.487450
C46 C 0.584960 0.169510 0.095700
C47 C 0.584310 0.305980 0.178060
C48 C 0.829560 0.364280 0.217610
C49 C 0.937290 0.431370 0.128580
C50 C 0.295410 0.758340 0.987450
C51 C 0.415040 0.830490 0.904300
C52 C 0.415690 0.694020 0.821940
C53 C 0.170440 0.635720 0.782390
C54 C 0.062710 0.568630 0.871420
C55 C 0.704590 0.258340 0.512550
C56 C 0.584960 0.330490 0.595700
C57 C 0.584310 0.194020 0.678060
C58 C 0.829560 0.135720 0.717610
C59 C 0.704590 0.241660 0.012550
C60 C 0.937290 0.068630 0.628580
O61 O 0.314180 0.512900 0.364620
O62 O 0.522960 0.739690 0.242640
O63 O 0.159350 0.987920 0.204170
O64 O 0.179470 1.078300 0.409290
O65 O 0.066920 0.699770 0.946300
O66 O 0.820530 0.578300 0.090710
O67 O 0.840650 0.487920 0.295830
O68 O 0.477040 0.239690 0.257360
O69 O 0.685820 0.012900 0.135380
O70 O 0.933080 0.300230 0.053700
O71 O 0.314180 0.987100 0.864620
O72 O 0.522960 0.760310 0.742640
O73 O 0.159350 0.512080 0.704170
O74 O 0.179470 0.421700 0.909290
O75 O 0.933080 0.199770 0.553700
O76 O 0.685820 0.487100 0.635380
O77 O 0.477040 0.260310 0.757360
O78 O 0.840650 0.012080 0.795830
O79 O 0.820530 -0.078300 0.590710
O80 O 0.066920 0.800230 0.446300

#END
