
#######################################################################
#
#                 Cambridge Crystallographic Data Centre
#                                CCDC 
#
#######################################################################
#
# If this CIF has been generated from an entry in the Cambridge 
# Structural Database, then it will include bibliographic, chemical, 
# crystal, experimental, refinement or atomic coordinate data resulting 
# from the CCDC's data processing and validation procedures.
#
#######################################################################

data_ABINUU
_symmetry_cell_setting           orthorhombic
_symmetry_space_group_name_H-M   'P 21 21 21'
_symmetry_Int_Tables_number      19
_space_group_name_Hall           'P 2ac 2ab'
loop_
_symmetry_equiv_pos_site_id
_symmetry_equiv_pos_as_xyz
1 x,y,z
2 1/2-x,-y,1/2+z
3 1/2+x,1/2-y,-z
4 -x,1/2+y,1/2-z
_cell_length_a                   7.852(5)
_cell_length_b                   9.285(7)
_cell_length_c                   35.284(27)
_cell_angle_alpha                90
_cell_angle_beta                 90
_cell_angle_gamma                90
_cell_volume                     2572.41
loop_
_atom_site_label
_atom_site_type_symbol
_atom_site_fract_x
_atom_site_fract_y
_atom_site_fract_z
C1 C 0.2092(4) -0.3536(3) 0.87035(9)
C2 C 0.3548(4) -0.3095(3) 0.84591(9)
H1 H 0.3778(4) -0.3824(3) 0.82692(9)
H2 H 0.4565(4) -0.2953(3) 0.86104(9)
C3 C 0.2998(3) -0.1659(3) 0.82680(7)
C4 C 0.2598(4) -0.1977(4) 0.78398(8)
C5 C 0.4429(3) -0.0518(3) 0.83156(7)
H3 H 0.5289(3) -0.0970(3) 0.84780(7)
C6 C 0.5345(4) -0.0165(3) 0.79439(7)
H4 H 0.4673(4) 0.0521(3) 0.77999(7)
H5 H 0.6438(4) 0.0275(3) 0.79991(7)
C7 C 0.5609(4) -0.1485(4) 0.77154(8)
C8 C 0.3678(3) 0.0747(3) 0.85531(7)
C9 C 0.2339(3) -0.0028(3) 0.88091(7)
H6 H 0.1468(3) 0.0674(3) 0.88835(7)
C10 C 0.1502(3) -0.1162(3) 0.85350(7)
C11 C 0.3047(3) -0.0747(3) 0.91699(7)
H7 H 0.2241(3) -0.1474(3) 0.92522(7)
H8 H 0.4096(3) -0.1239(3) 0.91042(7)
C12 C 0.3408(4) 0.0252(3) 0.95037(7)
H9 H 0.3454(4) -0.0335(3) 0.97309(7)
H10 H 0.2440(4) 0.0893(3) 0.95306(7)
C13 C 0.5028(3) 0.1187(3) 0.94944(7)
C14 C 0.4987(3) 0.2221(3) 0.91466(7)
C15 C 0.5154(4) 0.1533(3) 0.87483(7)
C16 C 0.6512(4) 0.3271(3) 0.91728(8)
C17 C 0.6532(3) 0.0144(3) 0.94509(7)
C18 C 0.5082(4) 0.2098(4) 0.98560(8)
H11 H 0.4643(26) 0.1546(9) 1.00644(15)
H12 H 0.4399(23) 0.2946(13) 0.9822(2)
H13 H 0.6237(6) 0.2373(20) 0.9908(3)
C19 C -0.0176(4) -0.0610(4) 0.83745(9)
H14 H 0.0027(5) 0.0251(14) 0.8231(5)
H15 H -0.0946(10) -0.0402(22) 0.85787(9)
H16 H -0.0666(14) -0.1330(10) 0.8213(5)
C20 C 0.7541(4) -0.0390(3) 0.97749(8)
C21 C 0.7355(5) -0.0295(4) 1.01591(9)
H17 H 0.6490(5) 0.0210(4) 1.02806(9)
C22 C 0.9001(4) -0.1261(4) 0.97210(12)
H18 H 0.9459(4) -0.1541(4) 0.94893(12)
C23 C 0.9598(5) -0.1606(5) 1.00599(15)
H19 H 1.0565(5) -0.2162(5) 1.01021(15)
C24 C 0.1823(5) -0.0790(4) 0.76003(9)
H20 H 0.2344(24) 0.0114(7) 0.7664(5)
H21 H 0.0621(7) -0.0737(18) 0.7648(5)
H22 H 0.2013(29) -0.0994(15) 0.73369(10)
C25 C 0.1512(5) -0.3324(4) 0.77768(11)
H23 H 0.0429(14) -0.3205(13) 0.7899(7)
H24 H 0.2084(17) -0.4147(6) 0.7882(7)
H25 H 0.1341(30) -0.3467(18) 0.75100(12)
C26 C 0.2843(4) 0.1946(3) 0.83143(8)
H26 H 0.2239(22) 0.2594(13) 0.84783(10)
H27 H 0.2062(20) 0.1524(4) 0.8137(4)
H28 H 0.3708(5) 0.2466(14) 0.8179(5)
C27 C 0.7579(7) 0.5542(6) 0.9021(2)
H29 H 0.7403(27) 0.6294(27) 0.9203(9)
H30 H 0.7670(35) 0.5956(36) 0.8772(4)
H31 H 0.8608(10) 0.5031(11) 0.9080(12)
O1 O 0.1866(3) -0.4678(2) 0.88576(8)
O2 O 0.4262(3) -0.2376(3) 0.76753(6)
O3 O 0.6945(3) -0.1841(3) 0.75734(7)
O4 O 0.0972(2) -0.2462(2) 0.87407(6)
O5 O 0.3382(2) 0.2919(2) 0.91683(6)
H32 H 0.3427(12) 0.3689(16) 0.9055(8)
O6 O 0.6423(3) 0.1806(3) 0.85649(5)
O7 O 0.7873(3) 0.2933(3) 0.93038(7)
O8 O 0.6137(3) 0.4544(2) 0.90306(7)
O9 O 0.6825(3) -0.0375(3) 0.91394(6)
O10 O 0.8601(4) -0.1036(3) 1.03386(8)
C1 C 0.2908(4) 1.3536(3) 0.37035(9)
C2 C 0.1452(4) 1.3095(3) 0.34591(9)
H1 H 0.1222(4) 1.3824(3) 0.32692(9)
H2 H 0.0435(4) 1.2953(3) 0.36104(9)
C3 C 0.2002(3) 1.1659(3) 0.32680(7)
C4 C 0.2402(4) 1.1977(4) 0.28398(8)
C5 C 0.0571(3) 1.0518(3) 0.33156(7)
H3 H -0.0289(3) 1.0970(3) 0.34780(7)
C6 C -0.0345(4) 1.0165(3) 0.29439(7)
H4 H 0.0327(4) 0.9479(3) 0.27999(7)
H5 H -0.1438(4) 0.9725(3) 0.29991(7)
C7 C -0.0609(4) 1.1485(4) 0.27154(8)
C8 C 0.1322(3) 0.9253(3) 0.35531(7)
C9 C 0.2661(3) 1.0028(3) 0.38091(7)
H6 H 0.3532(3) 0.9326(3) 0.38835(7)
C10 C 0.3498(3) 1.1162(3) 0.35350(7)
C11 C 0.1953(3) 1.0747(3) 0.41699(7)
H7 H 0.2759(3) 1.1474(3) 0.42522(7)
H8 H 0.0904(3) 1.1239(3) 0.41042(7)
C12 C 0.1592(4) 0.9748(3) 0.45037(7)
H9 H 0.1546(4) 1.0335(3) 0.47309(7)
H10 H 0.2560(4) 0.9107(3) 0.45306(7)
C13 C -0.0028(3) 0.8813(3) 0.44944(7)
C14 C 0.0013(3) 0.7779(3) 0.41466(7)
C15 C -0.0154(4) 0.8467(3) 0.37483(7)
C16 C -0.1512(4) 0.6729(3) 0.41728(8)
C17 C -0.1532(3) 0.9856(3) 0.44509(7)
C18 C -0.0082(4) 0.7902(4) 0.48560(8)
H11 H 0.0357(26) 0.8454(9) 0.50644(15)
H12 H 0.0601(23) 0.7054(13) 0.4822(2)
H13 H -0.1237(6) 0.7627(20) 0.4908(3)
C19 C 0.5176(4) 1.0610(4) 0.33745(9)
H14 H 0.4973(5) 0.9749(14) 0.3231(5)
H15 H 0.5946(10) 1.0402(22) 0.35787(9)
H16 H 0.5666(14) 1.1330(10) 0.3213(5)
C20 C -0.2541(4) 1.0390(3) 0.47749(8)
C21 C -0.2355(5) 1.0295(4) 0.51591(9)
H17 H -0.1490(5) 0.9790(4) 0.52806(9)
C22 C -0.4001(4) 1.1261(4) 0.47210(12)
H18 H -0.4459(4) 1.1541(4) 0.44893(12)
C23 C -0.4598(5) 1.1606(5) 0.50599(15)
H19 H -0.5565(5) 1.2162(5) 0.51021(15)
C24 C 0.3177(5) 1.0790(4) 0.26003(9)
H20 H 0.2656(24) 0.9886(7) 0.2664(5)
H21 H 0.4379(7) 1.0737(18) 0.2648(5)
H22 H 0.2987(29) 1.0994(15) 0.23369(10)
C25 C 0.3488(5) 1.3324(4) 0.27768(11)
H23 H 0.4571(14) 1.3205(13) 0.2899(7)
H24 H 0.2916(17) 1.4147(6) 0.2882(7)
H25 H 0.3659(30) 1.3467(18) 0.25100(12)
C26 C 0.2157(4) 0.8054(3) 0.33143(8)
H26 H 0.2761(22) 0.7406(13) 0.34783(10)
H27 H 0.2938(20) 0.8476(4) 0.3137(4)
H28 H 0.1292(5) 0.7534(14) 0.3179(5)
C27 C -0.2579(7) 0.4458(6) 0.4021(2)
H29 H -0.2403(27) 0.3706(27) 0.4203(9)
H30 H -0.2670(35) 0.4044(36) 0.3772(4)
H31 H -0.3608(10) 0.4969(11) 0.4080(12)
O1 O 0.3134(3) 1.4678(2) 0.38576(8)
O2 O 0.0738(3) 1.2376(3) 0.26753(6)
O3 O -0.1945(3) 1.1841(3) 0.25734(7)
O4 O 0.4028(2) 1.2462(2) 0.37407(6)
O5 O 0.1618(2) 0.7081(2) 0.41683(6)
H32 H 0.1573(12) 0.6311(16) 0.4055(8)
O6 O -0.1423(3) 0.8194(3) 0.35649(5)
O7 O -0.2873(3) 0.7067(3) 0.43038(7)
O8 O -0.1137(3) 0.5456(2) 0.40306(7)
O9 O -0.1825(3) 1.0375(3) 0.41394(6)
O10 O -0.3601(4) 1.1036(3) 0.53386(8)
C1 C 0.7092(4) 0.8536(3) 0.12965(9)
C2 C 0.8548(4) 0.8095(3) 0.15409(9)
H1 H 0.8778(4) 0.8824(3) 0.17308(9)
H2 H 0.9565(4) 0.7953(3) 0.13896(9)
C3 C 0.7998(3) 0.6659(3) 0.17320(7)
C4 C 0.7598(4) 0.6977(4) 0.21602(8)
C5 C 0.9429(3) 0.5518(3) 0.16844(7)
H3 H 1.0289(3) 0.5970(3) 0.15220(7)
C6 C 1.0345(4) 0.5165(3) 0.20561(7)
H4 H 0.9673(4) 0.4479(3) 0.22001(7)
H5 H 1.1438(4) 0.4725(3) 0.20009(7)
C7 C 1.0609(4) 0.6485(4) 0.22846(8)
C8 C 0.8678(3) 0.4253(3) 0.14469(7)
C9 C 0.7339(3) 0.5028(3) 0.11909(7)
H6 H 0.6468(3) 0.4326(3) 0.11165(7)
C10 C 0.6502(3) 0.6162(3) 0.14650(7)
C11 C 0.8047(3) 0.5747(3) 0.08301(7)
H7 H 0.7241(3) 0.6474(3) 0.07478(7)
H8 H 0.9096(3) 0.6239(3) 0.08958(7)
C12 C 0.8408(4) 0.4748(3) 0.04963(7)
H9 H 0.8454(4) 0.5335(3) 0.02691(7)
H10 H 0.7440(4) 0.4107(3) 0.04694(7)
C13 C 1.0028(3) 0.3813(3) 0.05056(7)
C14 C 0.9987(3) 0.2779(3) 0.08534(7)
C15 C 1.0154(4) 0.3467(3) 0.12517(7)
C16 C 1.1512(4) 0.1729(3) 0.08272(8)
C17 C 1.1532(3) 0.4856(3) 0.05491(7)
C18 C 1.0082(4) 0.2902(4) 0.01440(8)
H11 H 0.9643(26) 0.3454(9) -0.00644(15)
H12 H 0.9399(23) 0.2054(13) 0.0178(2)
H13 H 1.1237(6) 0.2627(20) 0.0092(3)
C19 C 0.4824(4) 0.5610(4) 0.16255(9)
H14 H 0.5027(5) 0.4749(14) 0.1769(5)
H15 H 0.4054(10) 0.5402(22) 0.14213(9)
H16 H 0.4334(14) 0.6330(10) 0.1787(5)
C20 C 1.2541(4) 0.5390(3) 0.02251(8)
C21 C 1.2355(5) 0.5295(4) -0.01591(9)
H17 H 1.1490(5) 0.4790(4) -0.02806(9)
C22 C 1.4001(4) 0.6261(4) 0.02790(12)
H18 H 1.4459(4) 0.6541(4) 0.05107(12)
C23 C 1.4598(5) 0.6606(5) -0.00599(15)
H19 H 1.5565(5) 0.7162(5) -0.01021(15)
C24 C 0.6823(5) 0.5790(4) 0.23997(9)
H20 H 0.7344(24) 0.4886(7) 0.2336(5)
H21 H 0.5621(7) 0.5737(18) 0.2352(5)
H22 H 0.7013(29) 0.5994(15) 0.26631(10)
C25 C 0.6512(5) 0.8324(4) 0.22232(11)
H23 H 0.5429(14) 0.8205(13) 0.2101(7)
H24 H 0.7084(17) 0.9147(6) 0.2118(7)
H25 H 0.6341(30) 0.8467(18) 0.24900(12)
C26 C 0.7843(4) 0.3054(3) 0.16857(8)
H26 H 0.7239(22) 0.2406(13) 0.15217(10)
H27 H 0.7062(20) 0.3476(4) 0.1863(4)
H28 H 0.8708(5) 0.2534(14) 0.1821(5)
C27 C 1.2579(7) -0.0542(6) 0.0979(2)
H29 H 1.2403(27) -0.1294(27) 0.0797(9)
H30 H 1.2670(35) -0.0956(36) 0.1228(4)
H31 H 1.3608(10) -0.0031(11) 0.0920(12)
O1 O 0.6866(3) 0.9678(2) 0.11424(8)
O2 O 0.9262(3) 0.7376(3) 0.23247(6)
O3 O 1.1945(3) 0.6841(3) 0.24266(7)
O4 O 0.5972(2) 0.7462(2) 0.12593(6)
O5 O 0.8382(2) 0.2081(2) 0.08317(6)
H32 H 0.8427(12) 0.1311(16) 0.0945(8)
O6 O 1.1423(3) 0.3194(3) 0.14351(5)
O7 O 1.2873(3) 0.2067(3) 0.06962(7)
O8 O 1.1137(3) 0.0456(2) 0.09694(7)
O9 O 1.1825(3) 0.5375(3) 0.08606(6)
O10 O 1.3601(4) 0.6036(3) -0.03386(8)
C1 C 0.7908(4) 0.1464(3) 0.62965(9)
C2 C 0.6452(4) 0.1905(3) 0.65409(9)
H1 H 0.6222(4) 0.1176(3) 0.67308(9)
H2 H 0.5435(4) 0.2047(3) 0.63896(9)
C3 C 0.7002(3) 0.3341(3) 0.67320(7)
C4 C 0.7402(4) 0.3023(4) 0.71602(8)
C5 C 0.5571(3) 0.4482(3) 0.66844(7)
H3 H 0.4711(3) 0.4030(3) 0.65220(7)
C6 C 0.4655(4) 0.4835(3) 0.70561(7)
H4 H 0.5327(4) 0.5521(3) 0.72001(7)
H5 H 0.3562(4) 0.5275(3) 0.70009(7)
C7 C 0.4391(4) 0.3515(4) 0.72846(8)
C8 C 0.6322(3) 0.5747(3) 0.64469(7)
C9 C 0.7661(3) 0.4972(3) 0.61909(7)
H6 H 0.8532(3) 0.5674(3) 0.61165(7)
C10 C 0.8498(3) 0.3838(3) 0.64650(7)
C11 C 0.6953(3) 0.4253(3) 0.58301(7)
H7 H 0.7759(3) 0.3526(3) 0.57478(7)
H8 H 0.5904(3) 0.3761(3) 0.58958(7)
C12 C 0.6592(4) 0.5252(3) 0.54963(7)
H9 H 0.6546(4) 0.4665(3) 0.52691(7)
H10 H 0.7560(4) 0.5893(3) 0.54694(7)
C13 C 0.4972(3) 0.6187(3) 0.55056(7)
C14 C 0.5013(3) 0.7221(3) 0.58534(7)
C15 C 0.4846(4) 0.6533(3) 0.62517(7)
C16 C 0.3488(4) 0.8271(3) 0.58272(8)
C17 C 0.3468(3) 0.5144(3) 0.55491(7)
C18 C 0.4918(4) 0.7098(4) 0.51440(8)
H11 H 0.5357(26) 0.6546(9) 0.49356(15)
H12 H 0.5601(23) 0.7946(13) 0.5178(2)
H13 H 0.3763(6) 0.7373(20) 0.5092(3)
C19 C 1.0176(4) 0.4390(4) 0.66255(9)
H14 H 0.9973(5) 0.5251(14) 0.6769(5)
H15 H 1.0946(10) 0.4598(22) 0.64213(9)
H16 H 1.0666(14) 0.3670(10) 0.6787(5)
C20 C 0.2459(4) 0.4610(3) 0.52251(8)
C21 C 0.2645(5) 0.4705(4) 0.48409(9)
H17 H 0.3510(5) 0.5210(4) 0.47194(9)
C22 C 0.0999(4) 0.3739(4) 0.52790(12)
H18 H 0.0541(4) 0.3459(4) 0.55107(12)
C23 C 0.0402(5) 0.3394(5) 0.49401(15)
H19 H -0.0565(5) 0.2838(5) 0.48979(15)
C24 C 0.8177(5) 0.4210(4) 0.73997(9)
H20 H 0.7656(24) 0.5114(7) 0.7336(5)
H21 H 0.9379(7) 0.4263(18) 0.7352(5)
H22 H 0.7987(29) 0.4006(15) 0.76631(10)
C25 C 0.8488(5) 0.1676(4) 0.72232(11)
H23 H 0.9571(14) 0.1795(13) 0.7101(7)
H24 H 0.7916(17) 0.0853(6) 0.7118(7)
H25 H 0.8659(30) 0.1533(18) 0.74900(12)
C26 C 0.7157(4) 0.6946(3) 0.66857(8)
H26 H 0.7761(22) 0.7594(13) 0.65217(10)
H27 H 0.7938(20) 0.6524(4) 0.6863(4)
H28 H 0.6292(5) 0.7466(14) 0.6821(5)
C27 C 0.2421(7) 1.0542(6) 0.5979(2)
H29 H 0.2597(27) 1.1294(27) 0.5797(9)
H30 H 0.2330(35) 1.0956(36) 0.6228(4)
H31 H 0.1392(10) 1.0031(11) 0.5920(12)
O1 O 0.8134(3) 0.0322(2) 0.61424(8)
O2 O 0.5738(3) 0.2624(3) 0.73247(6)
O3 O 0.3055(3) 0.3159(3) 0.74266(7)
O4 O 0.9028(2) 0.2538(2) 0.62593(6)
O5 O 0.6618(2) 0.7919(2) 0.58317(6)
H32 H 0.6573(12) 0.8689(16) 0.5945(8)
O6 O 0.3577(3) 0.6806(3) 0.64351(5)
O7 O 0.2127(3) 0.7933(3) 0.56962(7)
O8 O 0.3863(3) 0.9544(2) 0.59694(7)
O9 O 0.3175(3) 0.4625(3) 0.58606(6)
O10 O 0.1399(4) 0.3964(3) 0.46614(8)

#END
