
#######################################################################
#
#                 Cambridge Crystallographic Data Centre
#                                CCDC 
#
#######################################################################
#
# If this CIF has been generated from an entry in the Cambridge 
# Structural Database, then it will include bibliographic, chemical, 
# crystal, experimental, refinement or atomic coordinate data resulting 
# from the CCDC's data processing and validation procedures.
#
#######################################################################

data_ABIRUB
_symmetry_cell_setting           monoclinic
_symmetry_space_group_name_H-M   'C 2/c'
_symmetry_Int_Tables_number      15
_space_group_name_Hall           '-C 2yn'
loop_
_symmetry_equiv_pos_site_id
_symmetry_equiv_pos_as_xyz
1 x,y,z
2 -x,y,1/2-z
3 1/2+x,1/2+y,z
4 1/2-x,1/2+y,1/2-z
5 -x,-y,-z
6 x,-y,1/2+z
7 1/2-x,1/2-y,-z
8 1/2+x,1/2-y,1/2+z
_cell_length_a                   27.495(3)
_cell_length_b                   7.3998(8)
_cell_length_c                   16.2265(17)
_cell_angle_alpha                90
_cell_angle_beta                 115.4110(10)
_cell_angle_gamma                90
_cell_volume                     2982
loop_
_atom_site_label
_atom_site_type_symbol
_atom_site_fract_x
_atom_site_fract_y
_atom_site_fract_z
O1 O 1.00236(5) 0.56912(17) 0.12255(11)
O2 O 0.94953(6) 0.79319(17) 0.12479(11)
C1 C 0.83989(7) -0.1976(2) 0.41104(12)
H1 H 0.8444 -0.2646 0.4638
C2 C 0.80368(7) -0.2529(2) 0.32728(12)
H2 H 0.7825 -0.3576 0.3218
C3 C 0.79720(6) -0.1565(2) 0.24842(11)
C4 C 0.83028(5) -0.00260(19) 0.25479(10)
C5 C 0.82290(6) 0.0835(2) 0.17121(10)
C6 C 0.85877(6) 0.2286(2) 0.16400(10)
C7 C 0.90777(6) 0.1814(2) 0.16342(11)
H3 H 0.9189 0.0586 0.1716
C8 C 0.94019(6) 0.3106(2) 0.15109(11)
H4 H 0.9731 0.2759 0.1499
C9 C 0.92486(6) 0.4917(2) 0.14042(10)
C10 C 0.95938(6) 0.6350(2) 0.12882(11)
C11 C 1.03892(9) 0.7007(3) 0.11421(19)
H5 H 1.0201 0.771 0.0582
H6 H 1.0697 0.6382 0.1117
H7 H 1.0517 0.7819 0.167
C12 C 0.84317(6) 0.4092(2) 0.15135(11)
H8 H 0.8095 0.4431 0.1498
C13 C 0.87606(6) 0.5401(2) 0.14093(11)
H9 H 0.8653 0.6633 0.1341
C14 C 0.75657(6) -0.2113(2) 0.16238(11)
H10 H 0.7347 -0.3131 0.1588
C15 C 0.74873(6) -0.1197(2) 0.08554(11)
H11 H 0.7203 -0.1533 0.0288
C16 C 0.78275(6) 0.0253(2) 0.08990(11)
H12 H 0.7779 0.085 0.0351
C17 C 0.87051(6) -0.0417(2) 0.41943(11)
H13 H 0.8946 -0.0024 0.4787
C18 C 0.86701(6) 0.0567(2) 0.34513(10)
C19 C 0.89986(9) 0.2276(3) 0.36408(13)
H14 H 0.9166 0.2513 0.4299
H15 H 0.8764 0.329 0.3322
H16 H 0.9279 0.2137 0.3425
O1 O -0.00236(5) 0.56912(17) 0.37745(11)
O2 O 0.05047(6) 0.79319(17) 0.37521(11)
C1 C 0.16011(7) -0.1976(2) 0.08896(12)
H1 H 0.1556 -0.2646 0.0362
C2 C 0.19632(7) -0.2529(2) 0.17272(12)
H2 H 0.2175 -0.3576 0.1782
C3 C 0.20280(6) -0.1565(2) 0.25158(11)
C4 C 0.16972(5) -0.00260(19) 0.24521(10)
C5 C 0.17710(6) 0.0835(2) 0.32879(10)
C6 C 0.14123(6) 0.2286(2) 0.33600(10)
C7 C 0.09223(6) 0.1814(2) 0.33658(11)
H3 H 0.0811 0.0586 0.3284
C8 C 0.05981(6) 0.3106(2) 0.34891(11)
H4 H 0.0269 0.2759 0.3501
C9 C 0.07514(6) 0.4917(2) 0.35958(10)
C10 C 0.04062(6) 0.6350(2) 0.37118(11)
C11 C -0.03892(9) 0.7007(3) 0.38579(19)
H5 H -0.0201 0.771 0.4418
H6 H -0.0697 0.6382 0.3883
H7 H -0.0517 0.7819 0.333
C12 C 0.15683(6) 0.4092(2) 0.34865(11)
H8 H 0.1905 0.4431 0.3502
C13 C 0.12394(6) 0.5401(2) 0.35907(11)
H9 H 0.1347 0.6633 0.3659
C14 C 0.24343(6) -0.2113(2) 0.33762(11)
H10 H 0.2653 -0.3131 0.3412
C15 C 0.25127(6) -0.1197(2) 0.41446(11)
H11 H 0.2797 -0.1533 0.4712
C16 C 0.21725(6) 0.0253(2) 0.41010(11)
H12 H 0.2221 0.085 0.4649
C17 C 0.12949(6) -0.0417(2) 0.08057(11)
H13 H 0.1054 -0.0024 0.0213
C18 C 0.13299(6) 0.0567(2) 0.15487(10)
C19 C 0.10014(9) 0.2276(3) 0.13592(13)
H14 H 0.0834 0.2513 0.0701
H15 H 0.1236 0.329 0.1678
H16 H 0.0721 0.2137 0.1575
O1 O 0.50236(5) 1.06912(17) 0.12255(11)
O2 O 0.44953(6) 1.29319(17) 0.12479(11)
C1 C 0.33989(7) 0.3024(2) 0.41104(12)
H1 H 0.3444 0.2354 0.4638
C2 C 0.30368(7) 0.2471(2) 0.32728(12)
H2 H 0.2825 0.1424 0.3218
C3 C 0.29720(6) 0.3435(2) 0.24842(11)
C4 C 0.33028(5) 0.49740(19) 0.25479(10)
C5 C 0.32290(6) 0.5835(2) 0.17121(10)
C6 C 0.35877(6) 0.7286(2) 0.16400(10)
C7 C 0.40777(6) 0.6814(2) 0.16342(11)
H3 H 0.4189 0.5586 0.1716
C8 C 0.44019(6) 0.8106(2) 0.15109(11)
H4 H 0.4731 0.7759 0.1499
C9 C 0.42486(6) 0.9917(2) 0.14042(10)
C10 C 0.45938(6) 1.1350(2) 0.12882(11)
C11 C 0.53892(9) 1.2007(3) 0.11421(19)
H5 H 0.5201 1.271 0.0582
H6 H 0.5697 1.1382 0.1117
H7 H 0.5517 1.2819 0.167
C12 C 0.34317(6) 0.9092(2) 0.15135(11)
H8 H 0.3095 0.9431 0.1498
C13 C 0.37606(6) 1.0401(2) 0.14093(11)
H9 H 0.3653 1.1633 0.1341
C14 C 0.25657(6) 0.2887(2) 0.16238(11)
H10 H 0.2347 0.1869 0.1588
C15 C 0.24873(6) 0.3803(2) 0.08554(11)
H11 H 0.2203 0.3467 0.0288
C16 C 0.28275(6) 0.5253(2) 0.08990(11)
H12 H 0.2779 0.585 0.0351
C17 C 0.37051(6) 0.4583(2) 0.41943(11)
H13 H 0.3946 0.4976 0.4787
C18 C 0.36701(6) 0.5567(2) 0.34513(10)
C19 C 0.39986(9) 0.7276(3) 0.36408(13)
H14 H 0.4166 0.7513 0.4299
H15 H 0.3764 0.829 0.3322
H16 H 0.4279 0.7137 0.3425
O1 O 0.49764(5) 1.06912(17) 0.37745(11)
O2 O 0.55047(6) 1.29319(17) 0.37521(11)
C1 C 0.66011(7) 0.3024(2) 0.08896(12)
H1 H 0.6556 0.2354 0.0362
C2 C 0.69632(7) 0.2471(2) 0.17272(12)
H2 H 0.7175 0.1424 0.1782
C3 C 0.70280(6) 0.3435(2) 0.25158(11)
C4 C 0.66972(5) 0.49740(19) 0.24521(10)
C5 C 0.67710(6) 0.5835(2) 0.32879(10)
C6 C 0.64123(6) 0.7286(2) 0.33600(10)
C7 C 0.59223(6) 0.6814(2) 0.33658(11)
H3 H 0.5811 0.5586 0.3284
C8 C 0.55981(6) 0.8106(2) 0.34891(11)
H4 H 0.5269 0.7759 0.3501
C9 C 0.57514(6) 0.9917(2) 0.35958(10)
C10 C 0.54062(6) 1.1350(2) 0.37118(11)
C11 C 0.46108(9) 1.2007(3) 0.38579(19)
H5 H 0.4799 1.271 0.4418
H6 H 0.4303 1.1382 0.3883
H7 H 0.4483 1.2819 0.333
C12 C 0.65683(6) 0.9092(2) 0.34865(11)
H8 H 0.6905 0.9431 0.3502
C13 C 0.62394(6) 1.0401(2) 0.35907(11)
H9 H 0.6347 1.1633 0.3659
C14 C 0.74343(6) 0.2887(2) 0.33762(11)
H10 H 0.7653 0.1869 0.3412
C15 C 0.75127(6) 0.3803(2) 0.41446(11)
H11 H 0.7797 0.3467 0.4712
C16 C 0.71725(6) 0.5253(2) 0.41010(11)
H12 H 0.7221 0.585 0.4649
C17 C 0.62949(6) 0.4583(2) 0.08057(11)
H13 H 0.6054 0.4976 0.0213
C18 C 0.63299(6) 0.5567(2) 0.15487(10)
C19 C 0.60014(9) 0.7276(3) 0.13592(13)
H14 H 0.5834 0.7513 0.0701
H15 H 0.6236 0.829 0.1678
H16 H 0.5721 0.7137 0.1575
O1 O -0.00236(5) 0.43088(17) 0.87745(11)
O2 O 0.05047(6) 0.20681(17) 0.87521(11)
C1 C 0.16011(7) 1.1976(2) 0.58896(12)
H1 H 0.1556 1.2646 0.5362
C2 C 0.19632(7) 1.2529(2) 0.67272(12)
H2 H 0.2175 1.3576 0.6782
C3 C 0.20280(6) 1.1565(2) 0.75158(11)
C4 C 0.16972(5) 1.00260(19) 0.74521(10)
C5 C 0.17710(6) 0.9165(2) 0.82879(10)
C6 C 0.14123(6) 0.7714(2) 0.83600(10)
C7 C 0.09223(6) 0.8186(2) 0.83658(11)
H3 H 0.0811 0.9414 0.8284
C8 C 0.05981(6) 0.6894(2) 0.84891(11)
H4 H 0.0269 0.7241 0.8501
C9 C 0.07514(6) 0.5083(2) 0.85958(10)
C10 C 0.04062(6) 0.3650(2) 0.87118(11)
C11 C -0.03892(9) 0.2993(3) 0.88579(19)
H5 H -0.0201 0.229 0.9418
H6 H -0.0697 0.3618 0.8883
H7 H -0.0517 0.2181 0.833
C12 C 0.15683(6) 0.5908(2) 0.84865(11)
H8 H 0.1905 0.5569 0.8502
C13 C 0.12394(6) 0.4599(2) 0.85907(11)
H9 H 0.1347 0.3367 0.8659
C14 C 0.24343(6) 1.2113(2) 0.83762(11)
H10 H 0.2653 1.3131 0.8412
C15 C 0.25127(6) 1.1197(2) 0.91446(11)
H11 H 0.2797 1.1533 0.9712
C16 C 0.21725(6) 0.9747(2) 0.91010(11)
H12 H 0.2221 0.915 0.9649
C17 C 0.12949(6) 1.0417(2) 0.58057(11)
H13 H 0.1054 1.0024 0.5213
C18 C 0.13299(6) 0.9433(2) 0.65487(10)
C19 C 0.10014(9) 0.7724(3) 0.63592(13)
H14 H 0.0834 0.7487 0.5701
H15 H 0.1236 0.671 0.6678
H16 H 0.0721 0.7863 0.6575
O1 O 1.00236(5) 0.43088(17) 0.62255(11)
O2 O 0.94953(6) 0.20681(17) 0.62479(11)
C1 C 0.83989(7) 1.1976(2) 0.91104(12)
H1 H 0.8444 1.2646 0.9638
C2 C 0.80368(7) 1.2529(2) 0.82728(12)
H2 H 0.7825 1.3576 0.8218
C3 C 0.79720(6) 1.1565(2) 0.74842(11)
C4 C 0.83028(5) 1.00260(19) 0.75479(10)
C5 C 0.82290(6) 0.9165(2) 0.67121(10)
C6 C 0.85877(6) 0.7714(2) 0.66400(10)
C7 C 0.90777(6) 0.8186(2) 0.66342(11)
H3 H 0.9189 0.9414 0.6716
C8 C 0.94019(6) 0.6894(2) 0.65109(11)
H4 H 0.9731 0.7241 0.6499
C9 C 0.92486(6) 0.5083(2) 0.64042(10)
C10 C 0.95938(6) 0.3650(2) 0.62882(11)
C11 C 1.03892(9) 0.2993(3) 0.61421(19)
H5 H 1.0201 0.229 0.5582
H6 H 1.0697 0.3618 0.6117
H7 H 1.0517 0.2181 0.667
C12 C 0.84317(6) 0.5908(2) 0.65135(11)
H8 H 0.8095 0.5569 0.6498
C13 C 0.87606(6) 0.4599(2) 0.64093(11)
H9 H 0.8653 0.3367 0.6341
C14 C 0.75657(6) 1.2113(2) 0.66238(11)
H10 H 0.7347 1.3131 0.6588
C15 C 0.74873(6) 1.1197(2) 0.58554(11)
H11 H 0.7203 1.1533 0.5288
C16 C 0.78275(6) 0.9747(2) 0.58990(11)
H12 H 0.7779 0.915 0.5351
C17 C 0.87051(6) 1.0417(2) 0.91943(11)
H13 H 0.8946 1.0024 0.9787
C18 C 0.86701(6) 0.9433(2) 0.84513(10)
C19 C 0.89986(9) 0.7724(3) 0.86408(13)
H14 H 0.9166 0.7487 0.9299
H15 H 0.8764 0.671 0.8322
H16 H 0.9279 0.7863 0.8425
O1 O 0.49764(5) -0.06912(17) 0.87745(11)
O2 O 0.55047(6) -0.29319(17) 0.87521(11)
C1 C 0.66011(7) 0.6976(2) 0.58896(12)
H1 H 0.6556 0.7646 0.5362
C2 C 0.69632(7) 0.7529(2) 0.67272(12)
H2 H 0.7175 0.8576 0.6782
C3 C 0.70280(6) 0.6565(2) 0.75158(11)
C4 C 0.66972(5) 0.50260(19) 0.74521(10)
C5 C 0.67710(6) 0.4165(2) 0.82879(10)
C6 C 0.64123(6) 0.2714(2) 0.83600(10)
C7 C 0.59223(6) 0.3186(2) 0.83658(11)
H3 H 0.5811 0.4414 0.8284
C8 C 0.55981(6) 0.1894(2) 0.84891(11)
H4 H 0.5269 0.2241 0.8501
C9 C 0.57514(6) 0.0083(2) 0.85958(10)
C10 C 0.54062(6) -0.1350(2) 0.87118(11)
C11 C 0.46108(9) -0.2007(3) 0.88579(19)
H5 H 0.4799 -0.271 0.9418
H6 H 0.4303 -0.1382 0.8883
H7 H 0.4483 -0.2819 0.833
C12 C 0.65683(6) 0.0908(2) 0.84865(11)
H8 H 0.6905 0.0569 0.8502
C13 C 0.62394(6) -0.0401(2) 0.85907(11)
H9 H 0.6347 -0.1633 0.8659
C14 C 0.74343(6) 0.7113(2) 0.83762(11)
H10 H 0.7653 0.8131 0.8412
C15 C 0.75127(6) 0.6197(2) 0.91446(11)
H11 H 0.7797 0.6533 0.9712
C16 C 0.71725(6) 0.4747(2) 0.91010(11)
H12 H 0.7221 0.415 0.9649
C17 C 0.62949(6) 0.5417(2) 0.58057(11)
H13 H 0.6054 0.5024 0.5213
C18 C 0.63299(6) 0.4433(2) 0.65487(10)
C19 C 0.60014(9) 0.2724(3) 0.63592(13)
H14 H 0.5834 0.2487 0.5701
H15 H 0.6236 0.171 0.6678
H16 H 0.5721 0.2863 0.6575
O1 O 0.50236(5) -0.06912(17) 0.62255(11)
O2 O 0.44953(6) -0.29319(17) 0.62479(11)
C1 C 0.33989(7) 0.6976(2) 0.91104(12)
H1 H 0.3444 0.7646 0.9638
C2 C 0.30368(7) 0.7529(2) 0.82728(12)
H2 H 0.2825 0.8576 0.8218
C3 C 0.29720(6) 0.6565(2) 0.74842(11)
C4 C 0.33028(5) 0.50260(19) 0.75479(10)
C5 C 0.32290(6) 0.4165(2) 0.67121(10)
C6 C 0.35877(6) 0.2714(2) 0.66400(10)
C7 C 0.40777(6) 0.3186(2) 0.66342(11)
H3 H 0.4189 0.4414 0.6716
C8 C 0.44019(6) 0.1894(2) 0.65109(11)
H4 H 0.4731 0.2241 0.6499
C9 C 0.42486(6) 0.0083(2) 0.64042(10)
C10 C 0.45938(6) -0.1350(2) 0.62882(11)
C11 C 0.53892(9) -0.2007(3) 0.61421(19)
H5 H 0.5201 -0.271 0.5582
H6 H 0.5697 -0.1382 0.6117
H7 H 0.5517 -0.2819 0.667
C12 C 0.34317(6) 0.0908(2) 0.65135(11)
H8 H 0.3095 0.0569 0.6498
C13 C 0.37606(6) -0.0401(2) 0.64093(11)
H9 H 0.3653 -0.1633 0.6341
C14 C 0.25657(6) 0.7113(2) 0.66238(11)
H10 H 0.2347 0.8131 0.6588
C15 C 0.24873(6) 0.6197(2) 0.58554(11)
H11 H 0.2203 0.6533 0.5288
C16 C 0.28275(6) 0.4747(2) 0.58990(11)
H12 H 0.2779 0.415 0.5351
C17 C 0.37051(6) 0.5417(2) 0.91943(11)
H13 H 0.3946 0.5024 0.9787
C18 C 0.36701(6) 0.4433(2) 0.84513(10)
C19 C 0.39986(9) 0.2724(3) 0.86408(13)
H14 H 0.4166 0.2487 0.9299
H15 H 0.3764 0.171 0.8322
H16 H 0.4279 0.2863 0.8425

#END
