./ABIROV_from_POSCAR.cif_generated_by_CrystalShift
_symmetry_cell_setting triclinic
_symmetry_space_group_name_H-M 'P 1'
loop_
_symmetry_equiv_pos_site_id
_symmetry_equiv_pos_as_xyz
1 x,y,z
_cell_length_a 8.497000
_cell_length_b 23.827000
_cell_length_c 14.555000
_cell_angle_alpha 90.000000
_cell_angle_beta 94.664000
_cell_angle_gamma 90.000000
_cell_volume 2937.018728
loop_
_atom_site_label
_atom_site_type_symbol
_atom_site_fract_x
_atom_site_fract_y
_atom_site_fract_z
H1 H 0.436700 0.925300 -0.066300
H2 H 0.547700 0.837300 0.235800
H3 H -0.291100 0.285800 1.206500
H4 H 0.241400 0.826200 0.095200
H5 H -0.060100 0.336700 1.218600
H6 H 0.023700 0.882600 0.104600
H7 H 0.872900 0.805300 -0.178700
H8 H 0.641800 0.856100 -0.205100
H9 H 0.520800 0.961800 0.106100
H10 H 0.305400 1.019200 0.119000
H11 H 0.233900 0.336700 0.894200
H12 H 0.916000 0.761500 0.127300
H13 H 0.447800 0.395700 0.882500
H14 H 0.093800 1.059400 0.189500
H15 H -0.074600 1.068600 0.133900
H16 H 0.641500 0.461000 0.917800
H17 H 0.680100 0.513900 0.855600
H18 H 0.604000 0.458500 0.808300
H19 H 0.081500 1.065300 0.079600
H20 H 0.357600 0.573300 0.812400
H21 H 0.529800 0.583100 0.862900
H22 H 0.380500 0.577200 0.922500
H23 H -0.179600 0.948100 0.077900
H24 H -0.052900 0.469700 0.900000
H25 H -0.215000 0.997500 0.147900
H26 H 0.156000 0.529100 0.884200
H27 H -0.132400 0.940800 0.185900
H28 H -0.420500 0.264300 1.066200
H29 H 0.563300 0.425300 0.566300
H30 H 0.658200 0.367600 0.582200
H31 H -0.445600 0.272600 0.900900
H32 H 0.576400 0.396200 0.665700
H33 H -0.357700 0.304700 0.767200
H34 H 0.046400 0.271700 0.533600
H35 H -0.121700 0.358200 0.768500
H36 H 0.084000 0.261500 0.372700
H37 H 0.128500 0.387600 1.165600
H38 H 0.092600 0.419600 1.069500
H39 H 0.189600 0.362000 1.073300
H40 H 0.341800 0.867600 -0.082200
H41 H 0.222600 0.280300 0.248800
H42 H 1.291100 0.785800 0.293500
H43 H 0.452300 0.337300 0.264200
H44 H 1.060100 0.836700 0.281400
H45 H 0.758600 0.326200 0.404800
H46 H 0.976300 0.382600 0.395400
H47 H 0.127100 0.305300 0.678700
H48 H 0.358200 0.356100 0.705100
H49 H 0.479200 0.461800 0.393900
H50 H 0.766100 0.836700 0.605800
H51 H 0.694600 0.519200 0.381000
H52 H 0.552200 0.895700 0.617500
H53 H 0.906200 0.559400 0.310500
H54 H 1.074600 0.568600 0.366100
H55 H 0.358500 0.961000 0.582200
H56 H 0.319900 1.013900 0.644400
H57 H 0.396000 0.958500 0.691700
H58 H 0.918500 0.565300 0.420400
H59 H 0.642400 1.073300 0.687600
H60 H 0.470200 1.083100 0.637100
H61 H 0.619500 1.077200 0.577500
H62 H 1.179600 0.448100 0.422100
H63 H 1.052900 0.969700 0.600000
H64 H 1.215000 0.497500 0.352100
H65 H 0.844000 1.029100 0.615800
H66 H 1.132400 0.440800 0.314100
H67 H 1.420500 0.764300 0.433800
H68 H 0.563300 0.074700 1.066300
H69 H 0.658200 0.132400 1.082200
H70 H 1.445600 0.772600 0.599100
H71 H 0.576400 0.103800 1.165700
H72 H 1.357700 0.804700 0.732800
H73 H 0.046400 0.228300 1.033600
H74 H 1.121700 0.858200 0.731500
H75 H 0.084000 0.238500 0.872700
H76 H 0.871500 0.887600 0.334400
H77 H 0.907400 0.919600 0.430500
H78 H 0.810400 0.862000 0.426700
H79 H 0.423600 0.896200 -0.165700
H80 H 0.222600 0.219700 0.748800
H81 H 1.291100 0.714200 -0.206500
H82 H 0.452300 0.162700 0.764200
H83 H 1.060100 0.663300 -0.218600
H84 H 0.758600 0.173800 0.904800
H85 H 0.976300 0.117400 0.895400
H86 H 0.127100 0.194700 1.178700
H87 H 0.358200 0.143900 1.205100
H88 H 0.479200 0.038200 0.893900
H89 H 0.766100 0.663300 0.105800
H90 H 0.694600 -0.019200 0.881000
H91 H 0.552200 0.604300 0.117500
H92 H 0.906200 -0.059400 0.810500
H93 H 1.074600 -0.068600 0.866100
H94 H 0.358500 0.539000 0.082200
H95 H 0.319900 0.486100 0.144400
H96 H 0.396000 0.541500 0.191700
H97 H 0.918500 -0.065300 0.920400
H98 H 0.642400 0.426700 0.187600
H99 H 0.470200 0.416900 0.137100
H100 H 0.619500 0.422800 0.077500
H101 H 1.179600 0.051900 0.922100
H102 H 1.052900 0.530300 0.100000
H103 H 1.215000 0.002500 0.852100
H104 H 0.844000 0.470900 0.115800
H105 H 1.132400 0.059200 0.814100
H106 H 1.420500 0.735700 -0.066200
H107 H 0.436700 0.574700 0.433700
H108 H 0.341800 0.632400 0.417800
H109 H 1.445600 0.727400 0.099100
H110 H 0.423600 0.603800 0.334300
H111 H 1.357700 0.695300 0.232800
H112 H 0.953600 0.728300 0.466400
H113 H 1.121700 0.641800 0.231500
H114 H 0.916000 0.738500 0.627300
H115 H 0.871500 0.612400 -0.165600
H116 H 0.907400 0.580400 -0.069500
H117 H 0.810400 0.638000 -0.073300
H118 H 0.777400 0.719700 0.751200
H119 H 0.547700 0.662700 0.735800
H120 H -0.291100 0.214200 0.706500
H121 H 0.241400 0.673800 0.595200
H122 H -0.060100 0.163300 0.718600
H123 H 0.023700 0.617400 0.604600
H124 H 0.872900 0.694700 0.321300
H125 H 0.641800 0.643900 0.294900
H126 H 0.520800 0.538200 0.606100
H127 H 0.305400 0.480800 0.619000
H128 H 0.233900 0.163300 0.394200
H129 H 0.953600 0.771700 -0.033600
H130 H 0.447800 0.104300 0.382500
H131 H 0.093800 0.440600 0.689500
H132 H -0.074600 0.431400 0.633900
H133 H 0.641500 0.039000 0.417800
H134 H 0.680100 -0.013900 0.355600
H135 H 0.604000 0.041500 0.308300
H136 H 0.081500 0.434700 0.579600
H137 H 0.357600 -0.073300 0.312400
H138 H 0.529800 -0.083100 0.362900
H139 H 0.380500 -0.077200 0.422500
H140 H -0.179600 0.551900 0.577900
H141 H -0.052900 0.030300 0.400000
H142 H -0.215000 0.502500 0.647900
H143 H 0.156000 -0.029100 0.384200
H144 H -0.132400 0.559200 0.685900
H145 H -0.420500 0.235700 0.566200
H146 H 0.189600 0.138000 0.573300
H147 H 0.092600 0.080400 0.569500
H148 H -0.445600 0.227400 0.400900
H149 H 0.128500 0.112400 0.665600
H150 H -0.357700 0.195300 0.267200
H151 H -0.121700 0.141800 0.268500
H152 H 0.777400 0.780300 0.251200
C153 C 0.103900 0.117250 0.599100
C154 C -0.300100 0.186900 0.324300
C155 C -0.351800 0.205560 0.402700
C156 C -0.267300 0.193100 0.490100
C157 C -0.141000 0.532450 0.634700
C158 C -0.327200 0.213540 0.569500
C159 C 0.173900 0.010210 0.386800
C160 C 0.049200 0.045870 0.395900
C161 C 0.029200 0.449150 0.632300
C162 C 0.428100 -0.064280 0.367100
C163 C 0.606600 0.017190 0.362700
C164 C 0.326700 0.030920 0.381400
C165 C 0.345500 0.088650 0.385300
C166 C 0.139600 0.543050 0.615100
C167 C 0.291000 0.520310 0.614300
C168 C 0.217400 0.123850 0.393100
C169 C 0.419100 0.554680 0.606800
C170 C 0.066300 0.103370 0.399400
C171 C 0.405600 0.612520 0.600100
C172 C 0.547900 0.649270 0.599100
C173 C 0.631300 0.661870 0.519900
C174 C 0.579500 0.642480 0.426400
C175 C 0.673100 0.656110 0.355800
C176 C -0.073500 0.140340 0.406400
C177 C 0.811100 0.687050 0.371300
C178 C -0.127900 0.160690 0.491200
C179 C 0.125500 0.600720 0.606300
C180 C -0.046000 0.149060 0.582300
C181 C 0.255500 0.634300 0.599900
C182 C -0.111400 0.170230 0.659200
C183 C 0.602800 0.670670 0.683000
C184 C -0.249400 0.201150 0.651800
C185 C 0.742300 0.704920 0.692500
C186 C 0.433000 0.889350 -0.099100
C187 C 0.823200 0.716210 0.619800
C188 C 0.896100 0.617250 -0.099100
C189 C 0.770300 0.694760 0.530200
C190 C 0.859700 0.706690 0.457000
C191 C 1.157900 0.654130 0.174900
C192 C 0.433000 0.610650 0.400900
C193 C 1.300100 0.686900 0.175700
C194 C 1.351800 0.705560 0.097300
C195 C 1.267300 0.693100 0.009900
C196 C 1.141000 0.032450 0.865300
C197 C 1.327200 0.713540 -0.069500
C198 C 0.826100 0.510210 0.113200
C199 C 0.950800 0.545870 0.104100
C200 C 0.970800 -0.050850 0.867700
C201 C 0.571900 0.435720 0.132900
C202 C 0.393400 0.517190 0.137300
C203 C 0.673300 0.530920 0.118600
C204 C 0.859700 0.793310 -0.043000
C205 C 0.860400 0.043050 0.884900
C206 C 0.709000 0.020310 0.885700
C207 C 0.654500 0.588650 0.114700
C208 C 0.580900 0.054680 0.893200
C209 C 0.782600 0.623850 0.106900
C210 C 0.594400 0.112520 0.899900
C211 C 0.452100 0.149270 0.900900
C212 C 0.368700 0.161870 0.980100
C213 C 0.420500 0.142480 1.073600
C214 C 0.326900 0.156110 1.144200
C215 C 0.933700 0.603370 0.100600
C216 C 0.188900 0.187050 1.128700
C217 C 1.073500 0.640340 0.093600
C218 C 0.874500 0.100720 0.893700
C219 C 1.127900 0.660690 0.008800
C220 C 0.744500 0.134300 0.900100
C221 C 1.046000 0.649060 -0.082300
C222 C 0.397200 0.170670 0.817000
C223 C 1.111400 0.670230 -0.159200
C224 C 0.257700 0.204920 0.807500
C225 C 1.249400 0.701150 -0.151800
C226 C 0.176800 0.216210 0.880200
C227 C 0.896100 0.882750 0.400900
C228 C 0.229700 0.194760 0.969800
C229 C 0.140300 0.206690 1.043000
C230 C 1.157900 0.845870 0.674900
C231 C 0.567000 0.110650 1.099100
C232 C 1.300100 0.813100 0.675700
C233 C 1.351800 0.794440 0.597300
C234 C 1.267300 0.806900 0.509900
C235 C 1.141000 0.467550 0.365300
C236 C 1.327200 0.786460 0.430500
C237 C 0.826100 0.989790 0.613200
C238 C 0.950800 0.954130 0.604100
C239 C 0.970800 0.550850 0.367700
C240 C 0.571900 1.064280 0.632900
C241 C 0.393400 0.982810 0.637300
C242 C 0.673300 0.969080 0.618600
C243 C 0.770300 0.805240 0.030200
C244 C 0.860400 0.456950 0.384900
C245 C 0.709000 0.479690 0.385700
C246 C 0.654500 0.911350 0.614700
C247 C 0.580900 0.445320 0.393200
C248 C 0.782600 0.876150 0.606900
C249 C 0.594400 0.387480 0.399900
C250 C 0.452100 0.350730 0.400900
C251 C 0.368700 0.338130 0.480100
C252 C 0.420500 0.357520 0.573600
C253 C 0.326900 0.343890 0.644200
C254 C 0.933700 0.896630 0.600600
C255 C 0.188900 0.312950 0.628700
C256 C 1.073500 0.859660 0.593600
C257 C 0.874500 0.399280 0.393700
C258 C 1.127900 0.839310 0.508800
C259 C 0.744500 0.365700 0.400100
C260 C 1.046000 0.850940 0.417700
C261 C 0.397200 0.329330 0.317000
C262 C 1.111400 0.829770 0.340800
C263 C 0.257700 0.295080 0.307500
C264 C 1.249400 0.798850 0.348200
C265 C 0.176800 0.283790 0.380200
C266 C 0.103900 0.382750 1.099100
C267 C 0.229700 0.305240 0.469800
C268 C 0.140300 0.293310 0.543000
C269 C -0.157900 0.345870 0.825100
C270 C 0.567000 0.389350 0.599100
C271 C -0.300100 0.313100 0.824300
C272 C -0.351800 0.294440 0.902700
C273 C -0.267300 0.306900 0.990100
C274 C -0.141000 0.967550 0.134700
C275 C -0.327200 0.286460 1.069500
C276 C 0.173900 0.489790 0.886800
C277 C 0.049200 0.454130 0.895900
C278 C 0.029200 1.050850 0.132300
C279 C 0.428100 0.564280 0.867100
C280 C 0.606600 0.482810 0.862700
C281 C 0.326700 0.469080 0.881400
C282 C 0.345500 0.411350 0.885300
C283 C 0.139600 0.956950 0.115100
C284 C 0.291000 0.979690 0.114300
C285 C 0.217400 0.376150 0.893100
C286 C 0.419100 0.945320 0.106800
C287 C 0.066300 0.396630 0.899400
C288 C 0.405600 0.887480 0.100100
C289 C 0.547900 0.850730 0.099100
C290 C 0.631300 0.838130 0.019900
C291 C 0.579500 0.857520 -0.073600
C292 C 0.673100 0.843890 -0.144200
C293 C -0.073500 0.359660 0.906400
C294 C 0.811100 0.812950 -0.128700
C295 C -0.127900 0.339310 0.991200
C296 C 0.125500 0.899280 0.106300
C297 C -0.046000 0.350940 1.082300
C298 C 0.255500 0.865700 0.099900
C299 C -0.111400 0.329770 1.159200
C300 C 0.602800 0.829330 0.183000
C301 C -0.249400 0.298850 1.151800
C302 C 0.742300 0.795080 0.192500
C303 C -0.157900 0.154130 0.325100
C304 C 0.823200 0.783790 0.119800
N305 N 0.990000 0.491210 0.376600
N306 N 0.990000 0.008790 0.876600
N307 N 0.010000 0.508790 0.623400
N308 N 0.452200 -0.004630 0.372300
N309 N 0.547800 0.495370 0.127700
N310 N 0.547800 1.004630 0.627700
N311 N 0.452200 0.504630 0.872300
N312 N 0.010000 0.991210 0.123400

#END
