./ABOBOL_from_POSCAR.cif_generated_by_CrystalShift
_symmetry_cell_setting triclinic
_symmetry_space_group_name_H-M 'P 1'
loop_
_symmetry_equiv_pos_site_id
_symmetry_equiv_pos_as_xyz
1 x,y,z
_cell_length_a 9.196000
_cell_length_b 12.205000
_cell_length_c 17.211000
_cell_angle_alpha 109.982000
_cell_angle_beta 94.427000
_cell_angle_gamma 99.724000
_cell_volume 1770.263530
loop_
_atom_site_label
_atom_site_type_symbol
_atom_site_fract_x
_atom_site_fract_y
_atom_site_fract_z
H1 H 1.170000 0.419100 0.966600
H2 H 1.398100 0.536500 0.973300
H3 H 1.494100 0.525900 0.853700
H4 H 1.365900 0.400100 0.725900
H5 H 0.889700 0.518600 0.375200
H6 H 1.036900 0.472700 0.388700
H7 H 1.133600 0.281800 0.718100
H8 H 0.807100 0.418900 0.455300
H9 H 0.816400 0.041000 0.760400
H10 H 0.826600 -0.133200 0.781400
H11 H 1.000800 -0.137300 0.882700
H12 H 0.766200 0.275300 0.576800
H13 H 1.170400 0.033800 0.961300
H14 H 0.950200 0.170400 0.577300
H15 H 1.162400 0.209400 0.940300
H16 H 1.157300 0.117800 0.520200
H17 H 0.599400 0.203200 0.829800
H18 H 1.233500 0.179200 0.415000
H19 H 0.424200 0.105500 0.885600
H20 H 1.102500 0.293300 0.366500
H21 H 0.482000 0.110700 1.020100
H22 H 0.711400 0.207500 1.096000
H23 H 0.930900 0.334300 1.101200
H24 H 0.816900 0.085400 0.268200
H25 H 0.939800 0.399700 0.942600
H26 H 0.744400 -0.099800 0.275300
H27 H 0.708500 0.402100 0.849100
H28 H 0.555700 -0.136300 0.347900
H29 H 0.869500 0.466500 0.844000
H30 H 0.435600 0.014000 0.413600
H31 H -0.170000 0.580900 0.033400
H32 H 0.507200 0.200700 0.406300
H33 H -0.398100 0.463500 0.026700
H34 H -0.494100 0.474100 0.146300
H35 H 0.629200 0.483200 0.438200
H36 H -0.365900 0.599900 0.274100
H37 H 0.427200 0.563300 0.417700
H38 H -0.133600 0.718200 0.281900
H39 H 0.262900 0.476600 0.295900
H40 H 0.183600 0.959000 0.239600
H41 H 0.303000 0.311000 0.193400
H42 H 0.173400 1.133200 0.218600
H43 H 0.505200 0.227400 0.213200
H44 H -0.000800 1.137300 0.117300
H45 H -0.170400 0.966200 0.038700
H46 H -0.162400 0.790600 0.059700
H47 H 0.400600 0.796800 0.170200
H48 H 0.110300 0.481400 0.624800
H49 H -0.036900 0.527300 0.611300
H50 H 0.575800 0.894500 0.114400
H51 H 0.192900 0.581100 0.544700
H52 H 0.518000 0.889300 -0.020100
H53 H 0.288600 0.792500 -0.096000
H54 H 0.069100 0.665700 -0.101200
H55 H 0.233800 0.724700 0.423200
H56 H 0.060200 0.600300 0.057400
H57 H 0.049800 0.829600 0.422700
H58 H 0.291500 0.597900 0.150900
H59 H -0.157300 0.882200 0.479800
H60 H 0.130500 0.533500 0.156000
H61 H -0.233500 0.820800 0.585000
H62 H 0.494800 0.772600 0.786800
H63 H -0.102500 0.706700 0.633500
H64 H 0.697000 0.689000 0.806600
H65 H 0.737100 0.523400 0.704100
H66 H 0.572800 0.436700 0.582300
H67 H 0.183100 0.914600 0.731800
H68 H 0.370800 0.516800 0.561800
H69 H 0.255600 1.099800 0.724700
H70 H 0.492800 0.799300 0.593700
H71 H 0.444300 1.136300 0.652100
H72 H 0.564400 0.986000 0.586400
C73 C 0.487200 0.971600 0.615780
C74 C 0.443900 0.859600 0.620160
C75 C 0.415900 1.061100 0.654930
C76 C 0.409900 0.652580 0.671620
C77 C 0.436200 0.552700 0.611650
C78 C 0.303600 1.039100 0.697900
C79 C 0.557600 0.504500 0.623800
C80 C 0.260300 0.928080 0.702150
C81 C 0.654900 0.555600 0.696100
C82 C 0.329400 0.836540 0.663120
C83 C 0.631200 0.654500 0.756900
C84 C 0.278500 0.711490 0.662230
C85 C 0.509200 0.704600 0.745200
C86 C -0.070400 0.731600 0.591160
C87 C 0.905880 0.369940 0.276970
C88 C 0.199000 0.697490 0.247460
C89 C 1.345300 0.485200 0.921900
C90 C 0.192500 0.609570 0.162440
C91 C -0.149500 0.799700 0.562020
C92 C -0.104200 0.836100 0.499300
C93 C 0.124790 0.664120 0.104810
C94 C 0.019000 0.804700 0.465330
C95 C 0.239420 0.734770 0.071910
C96 C 0.206140 0.735410 -0.008150
C97 C 1.401600 0.478700 0.850800
C98 C 0.931300 0.448230 0.366990
C99 C 0.311100 0.793170 -0.042180
C100 C 0.097300 0.736510 0.494060
C101 C 0.447600 0.851100 0.003330
C102 C 0.054870 0.699680 0.558850
C103 C 0.483000 0.854000 0.083310
C104 C 0.149860 0.630710 0.591130
C105 C 0.377500 0.795320 0.116280
C106 C 0.068700 0.551770 0.633010
C107 C 0.025220 0.738830 0.162130
C108 C 0.012890 0.855130 0.151100
C109 C -0.093200 0.859500 0.091790
C110 C 1.325400 0.403800 0.774400
C111 C -0.098400 0.964800 0.079210
C112 C 0.094120 0.630060 0.723030
C113 C 0.001700 1.066500 0.126050
C114 C 0.850140 0.369290 0.408870
C115 C 0.105800 1.063700 0.185950
C116 C 0.490800 0.295400 0.254800
C117 C 0.111900 0.959400 0.198540
C118 C 0.368800 0.345500 0.243100
C119 C -0.125940 0.661390 0.158360
C120 C -0.185800 0.667100 0.230170
C121 C 0.345100 0.444400 0.303900
C122 C -0.325400 0.596200 0.225600
C123 C 0.442400 0.495500 0.376200
C124 C -0.401600 0.521300 0.149200
C125 C 0.563800 0.447300 0.388350
C126 C -0.345300 0.514800 0.078100
C127 C 0.590100 0.347420 0.328380
C128 C -0.208200 0.584960 0.082570
C129 C 0.556100 0.140400 0.379840
C130 C 1.185800 0.332900 0.769830
C131 C 0.801000 0.302510 0.752540
C132 C 1.125940 0.338610 0.841640
C133 C 0.807500 0.390430 0.837560
C134 C 0.512800 0.028400 0.384220
C135 C 0.584100 -0.061100 0.345070
C136 C 0.875210 0.335880 0.895190
C137 C 0.696400 -0.039100 0.302100
C138 C 0.760580 0.265230 0.928090
C139 C 0.793860 0.264590 1.008150
C140 C 0.945130 0.300320 0.441150
C141 C 0.739700 0.071920 0.297850
C142 C 0.688900 0.206830 1.042180
C143 C 0.670600 0.163460 0.336880
C144 C 0.552400 0.148900 0.996670
C145 C 0.721500 0.288510 0.337770
C146 C 0.517000 0.146000 0.916690
C147 C 1.070400 0.268400 0.408840
C148 C 0.622500 0.204680 0.883720
C149 C 1.149500 0.200300 0.437980
C150 C 0.974780 0.261170 0.837870
C151 C 0.987110 0.144870 0.848900
C152 C 1.093200 0.140500 0.908210
C153 C 1.104200 0.163900 0.500700
C154 C 1.098400 0.035200 0.920790
C155 C 0.981000 0.195300 0.534670
C156 C 0.998300 -0.066500 0.873950
C157 C 0.888100 0.040600 0.801460
C158 C 0.894200 -0.063700 0.814050
C159 C 0.902700 0.263490 0.505940
C160 C 1.208200 0.415040 0.917430
O161 O 0.930830 0.324880 1.051670
O162 O 0.726390 0.291440 0.688030
O163 O 0.892740 0.228910 0.753580
O164 O 0.205930 0.723080 0.738210
O165 O 0.027740 0.616590 0.778080
O166 O 0.218570 0.700500 0.461400
O167 O 0.069170 0.675120 -0.051670
O168 O 0.972260 0.383410 0.221920
O169 O 0.273610 0.708560 0.311970
O170 O 0.107260 0.771090 0.246420
O171 O 0.781430 0.299500 0.538600
O172 O 0.794070 0.276920 0.261790

#END
