./ABOFEF_from_POSCAR.cif_generated_by_CrystalShift
_symmetry_cell_setting triclinic
_symmetry_space_group_name_H-M 'P 1'
loop_
_symmetry_equiv_pos_site_id
_symmetry_equiv_pos_as_xyz
1 x,y,z
_cell_length_a 11.006000
_cell_length_b 9.632000
_cell_length_c 16.438000
_cell_angle_alpha 90.000000
_cell_angle_beta 101.050000
_cell_angle_gamma 90.000000
_cell_volume 1710.281880
loop_
_atom_site_label
_atom_site_type_symbol
_atom_site_fract_x
_atom_site_fract_y
_atom_site_fract_z
H1 H 1.076500 0.899300 0.173400
H2 H 0.834400 -0.006400 -0.033900
H3 H 0.627100 0.003500 -0.025400
H4 H 0.565800 0.141800 0.072400
H5 H 0.338200 0.076800 0.536300
H6 H 0.622700 0.251000 0.207200
H7 H 0.619700 0.377500 0.147800
H8 H 0.535200 0.231400 0.658600
H9 H 0.789900 0.473100 0.226300
H10 H 0.704700 0.427900 0.287900
H11 H 0.614700 0.343600 0.777300
H12 H 0.793700 0.285200 0.403500
H13 H 0.608900 0.423100 0.909200
H14 H 0.946800 0.141400 0.471200
H15 H 0.446800 0.358600 0.971200
H16 H 1.108900 0.076900 0.409200
H17 H 0.293700 0.214800 0.903500
H18 H 1.114700 0.156400 0.277300
H19 H 1.035200 0.268600 0.158600
H20 H 0.204700 0.072100 0.787900
H21 H 0.289900 0.026900 0.726300
H22 H 0.838200 0.423200 0.036300
H23 H 0.119700 0.122500 0.647800
H24 H 0.122700 0.249000 0.707200
H25 H 1.109300 0.462700 0.292400
H26 H 0.423500 1.399300 0.326600
H27 H 0.065800 0.358200 0.572400
H28 H 0.304300 1.366800 0.196900
H29 H 0.127100 0.496500 0.474600
H30 H 0.287300 1.147900 0.137700
H31 H 0.334400 0.506400 0.466100
H32 H 0.390700 0.962700 0.207600
H33 H 0.474700 0.373600 0.553700
H34 H 0.525300 0.626400 0.446300
H35 H 0.665600 0.493600 0.533900
H36 H 0.872900 0.503500 0.525400
H37 H 0.609300 0.037300 0.792400
H38 H 0.934200 0.641800 0.427600
H39 H 0.712700 -0.147900 0.862300
H40 H 0.877300 0.751000 0.292800
H41 H 0.695700 -0.366800 0.803100
H42 H 0.880300 0.877500 0.352200
H43 H 0.576500 -0.399300 0.673400
H44 H 0.710100 0.973100 0.273700
H45 H 1.195700 0.866800 0.303100
H46 H 0.795300 0.927900 0.212100
H47 H 0.706300 0.785200 0.096500
H48 H 0.553200 0.641400 0.028800
H49 H 0.161800 0.576800 0.963700
H50 H 0.391100 0.576900 0.090800
H51 H 0.385300 0.656400 0.222700
H52 H -0.035200 0.731400 0.841400
H53 H 0.464800 0.768600 0.341400
H54 H 0.661800 0.923200 0.463700
H55 H -0.114700 0.843600 0.722700
H56 H 1.212700 0.647900 0.362300
H57 H -0.108900 0.923100 0.590800
H58 H -0.076500 0.100700 0.826600
H59 H 0.053200 0.858600 0.528800
H60 H -0.195700 0.133200 0.696900
H61 H 0.206300 0.714800 0.596500
H62 H -0.212700 0.352100 0.637700
H63 H -0.109300 0.537300 0.707600
H64 H 0.295300 0.572100 0.712100
H65 H 0.210100 0.526900 0.773700
H66 H 0.025300 0.873600 0.946300
H67 H 0.380300 0.622500 0.852200
H68 H 0.377300 0.749000 0.792800
H69 H 0.165600 1.006400 1.033900
H70 H 0.372900 0.996500 1.025400
H71 H 0.434200 0.858200 0.927600
H72 H 0.974700 0.126400 0.053700
C73 C 0.350980 0.859730 0.931470
C74 C 0.191900 0.949200 0.995170
C75 C 0.268480 0.776610 0.877710
C76 C 0.108470 0.869140 0.942580
C77 C 0.325490 0.688400 0.818780
C78 C 0.143460 0.781910 0.884250
C79 C -0.025880 0.433540 0.809890
C80 C -0.101120 0.449730 0.731920
C81 C 0.244520 0.606500 0.749880
C82 C -0.163800 0.338800 0.689870
C83 C 0.140470 0.692200 0.702150
C84 C -0.153930 0.207830 0.725400
C85 C 0.142000 0.740800 0.622620
C86 C -0.082770 0.188250 0.802260
C87 C 0.049800 0.826800 0.581700
C88 C -0.020150 0.299980 0.843640
C89 C -0.046500 0.865600 0.618450
C90 C 0.616830 1.129200 0.467960
C91 C 1.163800 0.661200 0.310130
C92 C 0.614530 0.992010 0.432840
C93 C -0.049440 0.817700 0.697400
C94 C 0.547880 0.957340 0.357820
C95 C 0.543310 0.804510 0.330170
C96 C 0.042780 0.731900 0.739760
C97 C 0.542780 0.768100 0.239760
C98 C 0.450560 0.682300 0.197400
C99 C 0.043310 0.695490 0.830170
C100 C 0.453500 0.634400 0.118450
C101 C 0.047880 0.542660 0.857820
C102 C 0.549800 0.673200 0.081700
C103 C 0.114530 0.507990 0.932840
C104 C 0.642000 0.759200 0.122620
C105 C 1.153930 0.792170 0.274600
C106 C 0.640470 0.807800 0.202150
C107 C 0.744520 0.893500 0.249880
C108 C 0.116830 0.370800 0.967960
C109 C 0.520150 -0.200020 0.656360
C110 C 0.825490 0.811600 0.318780
C111 C 0.582770 -0.311750 0.697740
C112 C 0.653930 -0.292170 0.774600
C113 C 0.768480 0.723390 0.377710
C114 C 0.850980 0.640270 0.431470
C115 C 0.663800 -0.161200 0.810130
C116 C 0.814800 0.556200 0.489840
C117 C 0.601120 -0.050270 0.768080
C118 C 0.691900 0.550800 0.495170
C119 C 0.525880 -0.066460 0.690110
C120 C 0.608470 0.630860 0.442580
C121 C 0.356540 0.281910 0.615750
C122 C 0.643460 0.718090 0.384250
C123 C 0.474120 1.066460 0.309890
C124 C 0.398880 1.050270 0.231920
C125 C 0.391530 0.369140 0.557420
C126 C 0.336200 1.161200 0.189870
C127 C 0.308100 0.449200 0.504830
C128 C 0.346070 1.292170 0.225400
C129 C 0.185200 0.443800 0.510160
C130 C 0.417230 1.311750 0.302260
C131 C 0.149020 0.359730 0.568530
C132 C 0.479850 1.200020 0.343640
C133 C 0.231520 0.276610 0.622290
C134 C 0.883170 0.629200 0.032040
C135 C 1.101120 0.550270 0.268080
C136 C 0.885470 0.492010 0.067160
C137 C 0.174510 0.188400 0.681220
C138 C 0.952120 0.457340 0.142180
C139 C 0.956690 0.304510 0.169830
C140 C 0.255480 0.106500 0.750120
C141 C 0.957220 0.268100 0.260240
C142 C 1.049440 0.182300 0.302600
C143 C 0.359530 0.192200 0.797850
C144 C 1.046500 0.134400 0.381550
C145 C 0.358000 0.240800 0.877380
C146 C 0.950200 0.173200 0.418300
C147 C 0.450200 0.326800 0.918300
C148 C 0.858000 0.259200 0.377380
C149 C 0.546500 0.365600 0.881550
C150 C 0.859530 0.307800 0.297850
C151 C 0.755480 0.393500 0.250120
C152 C 0.549440 0.317700 0.802600
C153 C 0.457220 0.231900 0.760240
C154 C 0.674510 0.311600 0.181220
C155 C 0.456690 0.195490 0.669830
C156 C 0.452120 0.042660 0.642180
C157 C 0.731520 0.223390 0.122290
C158 C 0.649020 0.140270 0.068530
C159 C 0.385470 0.007990 0.567160
C160 C 0.685200 0.056200 0.010160
C161 C 1.082770 0.811750 0.197740
C162 C 0.808100 0.050800 0.004830
C163 C 0.383170 -0.129200 0.532040
C164 C 0.891530 0.130860 0.057420
C165 C 0.314800 0.943800 0.989840
C166 C 0.856540 0.218090 0.115750
C167 C 1.025880 0.566460 0.190110
C168 C 1.020150 0.700020 0.156360
O169 O 0.673550 1.163920 0.535110
O170 O 0.549340 1.230070 0.420640
O171 O 0.173550 0.336080 1.035110
O172 O 0.049340 0.269930 0.920640
O173 O 0.326450 -0.163920 0.464890
O174 O 0.950660 0.730070 0.079360
O175 O 0.826450 0.663920 -0.035110
O176 O 0.450660 -0.230070 0.579360

#END
