
#######################################################################
#
#                 Cambridge Crystallographic Data Centre
#                                CCDC 
#
#######################################################################
#
# If this CIF has been generated from an entry in the Cambridge 
# Structural Database, then it will include bibliographic, chemical, 
# crystal, experimental, refinement or atomic coordinate data resulting 
# from the CCDC's data processing and validation procedures.
#
#######################################################################

data_ABOLIN
_symmetry_cell_setting           monoclinic
_symmetry_space_group_name_H-M   'P 21/n'
_symmetry_Int_Tables_number      14
_space_group_name_Hall           '-P 2yn'
loop_
_symmetry_equiv_pos_site_id
_symmetry_equiv_pos_as_xyz
1 x,y,z
2 1/2+x,1/2-y,1/2+z
3 -x,-y,-z
4 1/2-x,1/2+y,1/2-z
_cell_length_a                   9.8378(9)
_cell_length_b                   16.072(1)
_cell_length_c                   11.3655(8)
_cell_angle_alpha                90
_cell_angle_beta                 109.951(6)
_cell_angle_gamma                90
_cell_volume                     1689.19
loop_
_atom_site_label
_atom_site_type_symbol
_atom_site_fract_x
_atom_site_fract_y
_atom_site_fract_z
Bi1 Bi 0.25033(2) 1.02000(1) 0.42199(1)
Cl1 Cl 0.3125(1) 1.17999(6) 0.4063(1)
N1 N 0.1830(3) 0.8691(2) 0.3519(3)
C1 C 0.0571(4) 1.0303(3) 0.2469(4)
C2 C -0.0144(5) 1.1048(3) 0.2043(4)
C3 C -0.1381(5) 1.1063(3) 0.0967(4)
C4 C -0.1894(5) 1.0331(3) 0.0331(4)
C5 C -0.1185(4) 0.9590(3) 0.0747(4)
C6 C 0.0056(4) 0.9563(3) 0.1825(4)
C7 C 0.0868(4) 0.8755(3) 0.2171(4)
C8 C 0.3255(4) 0.8330(3) 0.3577(4)
C9 C 0.4066(4) 0.8934(3) 0.3030(4)
C10 C 0.4953(5) 0.8639(3) 0.2391(4)
C11 C 0.5736(5) 0.9183(3) 0.1929(4)
C12 C 0.5637(5) 1.0034(3) 0.2095(4)
C13 C 0.4756(5) 1.0339(3) 0.2723(4)
C14 C 0.3981(4) 0.9793(3) 0.3192(4)
C15 C 0.1131(4) 0.8213(3) 0.4326(4)
C16 C -0.0297(5) 0.8636(3) 0.4216(5)
C17 C 0.0849(5) 0.7299(3) 0.3921(4)
C18 C 0.2134(5) 0.8241(3) 0.5703(4)
H1 H 0.0225 1.1545 0.2489
H2 H -0.1865 1.1573 0.0669
H3 H -0.2738 1.0340 -0.0394
H4 H -0.1545 0.9093 0.0298
H5 H 0.0177 0.8318 0.2005
H6 H 0.1449 0.8687 0.1660
H7 H 0.3817 0.8218 0.4425
H8 H 0.3096 0.7827 0.3110
H9 H 0.5015 0.8057 0.2277
H10 H 0.6342 0.8978 0.1498
H11 H 0.6168 1.0407 0.1768
H12 H 0.4690 1.0921 0.2842
H13 H -0.0120 0.9196 0.4492
H14 H -0.0918 0.8626 0.3367
H15 H -0.0743 0.8349 0.4718
H16 H 0.0223 0.7276 0.3074
H17 H 0.0411 0.7021 0.4437
H18 H 0.1740 0.7036 0.3997
H19 H 0.1702 0.7947 0.6209
H20 H 0.3037 0.7992 0.5780
H21 H 0.2283 0.8804 0.5969
Bi1 Bi 0.75033(2) 0.48000(1) 0.92199(1)
Cl1 Cl 0.8125(1) 0.32001(6) 0.9063(1)
N1 N 0.6830(3) 0.6309(2) 0.8519(3)
C1 C 0.5571(4) 0.4697(3) 0.7469(4)
C2 C 0.4856(5) 0.3952(3) 0.7043(4)
C3 C 0.3619(5) 0.3937(3) 0.5967(4)
C4 C 0.3106(5) 0.4669(3) 0.5331(4)
C5 C 0.3815(4) 0.5410(3) 0.5747(4)
C6 C 0.5056(4) 0.5437(3) 0.6825(4)
C7 C 0.5868(4) 0.6245(3) 0.7171(4)
C8 C 0.8255(4) 0.6670(3) 0.8577(4)
C9 C 0.9066(4) 0.6066(3) 0.8030(4)
C10 C 0.9953(5) 0.6361(3) 0.7391(4)
C11 C 1.0736(5) 0.5817(3) 0.6929(4)
C12 C 1.0637(5) 0.4966(3) 0.7095(4)
C13 C 0.9756(5) 0.4661(3) 0.7723(4)
C14 C 0.8981(4) 0.5207(3) 0.8192(4)
C15 C 0.6131(4) 0.6787(3) 0.9326(4)
C16 C 0.4703(5) 0.6364(3) 0.9216(5)
C17 C 0.5849(5) 0.7701(3) 0.8921(4)
C18 C 0.7134(5) 0.6759(3) 1.0703(4)
H1 H 0.5225 0.3455 0.7489
H2 H 0.3135 0.3427 0.5669
H3 H 0.2262 0.4660 0.4606
H4 H 0.3455 0.5907 0.5298
H5 H 0.5177 0.6682 0.7005
H6 H 0.6449 0.6313 0.6660
H7 H 0.8817 0.6782 0.9425
H8 H 0.8096 0.7173 0.8110
H9 H 1.0015 0.6943 0.7277
H10 H 1.1342 0.6022 0.6498
H11 H 1.1168 0.4593 0.6768
H12 H 0.9690 0.4079 0.7842
H13 H 0.4880 0.5804 0.9492
H14 H 0.4082 0.6374 0.8367
H15 H 0.4257 0.6651 0.9718
H16 H 0.5223 0.7724 0.8074
H17 H 0.5411 0.7979 0.9437
H18 H 0.6740 0.7964 0.8997
H19 H 0.6702 0.7053 1.1209
H20 H 0.8037 0.7008 1.0780
H21 H 0.7283 0.6196 1.0969
Bi1 Bi 0.74967(2) -0.02000(1) 0.57801(1)
Cl1 Cl 0.6875(1) -0.17999(6) 0.5937(1)
N1 N 0.8170(3) 0.1309(2) 0.6481(3)
C1 C 0.9429(4) -0.0303(3) 0.7531(4)
C2 C 1.0144(5) -0.1048(3) 0.7957(4)
C3 C 1.1381(5) -0.1063(3) 0.9033(4)
C4 C 1.1894(5) -0.0331(3) 0.9669(4)
C5 C 1.1185(4) 0.0410(3) 0.9253(4)
C6 C 0.9944(4) 0.0437(3) 0.8175(4)
C7 C 0.9132(4) 0.1245(3) 0.7829(4)
C8 C 0.6745(4) 0.1670(3) 0.6423(4)
C9 C 0.5934(4) 0.1066(3) 0.6970(4)
C10 C 0.5047(5) 0.1361(3) 0.7609(4)
C11 C 0.4264(5) 0.0817(3) 0.8071(4)
C12 C 0.4363(5) -0.0034(3) 0.7905(4)
C13 C 0.5244(5) -0.0339(3) 0.7277(4)
C14 C 0.6019(4) 0.0207(3) 0.6808(4)
C15 C 0.8869(4) 0.1787(3) 0.5674(4)
C16 C 1.0297(5) 0.1364(3) 0.5784(5)
C17 C 0.9151(5) 0.2701(3) 0.6079(4)
C18 C 0.7866(5) 0.1759(3) 0.4297(4)
H1 H 0.9775 -0.1545 0.7511
H2 H 1.1865 -0.1573 0.9331
H3 H 1.2738 -0.0340 1.0394
H4 H 1.1545 0.0907 0.9702
H5 H 0.9823 0.1682 0.7995
H6 H 0.8551 0.1313 0.8340
H7 H 0.6183 0.1782 0.5575
H8 H 0.6904 0.2173 0.6890
H9 H 0.4985 0.1943 0.7723
H10 H 0.3658 0.1022 0.8502
H11 H 0.3832 -0.0407 0.8232
H12 H 0.5310 -0.0921 0.7158
H13 H 1.0120 0.0804 0.5508
H14 H 1.0918 0.1374 0.6633
H15 H 1.0743 0.1651 0.5282
H16 H 0.9777 0.2724 0.6926
H17 H 0.9589 0.2979 0.5563
H18 H 0.8260 0.2964 0.6003
H19 H 0.8298 0.2053 0.3791
H20 H 0.6963 0.2008 0.4220
H21 H 0.7717 0.1196 0.4031
Bi1 Bi 0.24967(2) 0.52000(1) 0.07801(1)
Cl1 Cl 0.1875(1) 0.67999(6) 0.0937(1)
N1 N 0.3170(3) 0.3691(2) 0.1481(3)
C1 C 0.4429(4) 0.5303(3) 0.2531(4)
C2 C 0.5144(5) 0.6048(3) 0.2957(4)
C3 C 0.6381(5) 0.6063(3) 0.4033(4)
C4 C 0.6894(5) 0.5331(3) 0.4669(4)
C5 C 0.6185(4) 0.4590(3) 0.4253(4)
C6 C 0.4944(4) 0.4563(3) 0.3175(4)
C7 C 0.4132(4) 0.3755(3) 0.2829(4)
C8 C 0.1745(4) 0.3330(3) 0.1423(4)
C9 C 0.0934(4) 0.3934(3) 0.1970(4)
C10 C 0.0047(5) 0.3639(3) 0.2609(4)
C11 C -0.0736(5) 0.4183(3) 0.3071(4)
C12 C -0.0637(5) 0.5034(3) 0.2905(4)
C13 C 0.0244(5) 0.5339(3) 0.2277(4)
C14 C 0.1019(4) 0.4793(3) 0.1808(4)
C15 C 0.3869(4) 0.3213(3) 0.0674(4)
C16 C 0.5297(5) 0.3636(3) 0.0784(5)
C17 C 0.4151(5) 0.2299(3) 0.1079(4)
C18 C 0.2866(5) 0.3241(3) -0.0703(4)
H1 H 0.4775 0.6545 0.2511
H2 H 0.6865 0.6573 0.4331
H3 H 0.7738 0.5340 0.5394
H4 H 0.6545 0.4093 0.4702
H5 H 0.4823 0.3318 0.2995
H6 H 0.3551 0.3687 0.3340
H7 H 0.1183 0.3218 0.0575
H8 H 0.1904 0.2827 0.1890
H9 H -0.0015 0.3057 0.2723
H10 H -0.1342 0.3978 0.3502
H11 H -0.1168 0.5407 0.3232
H12 H 0.0310 0.5921 0.2158
H13 H 0.5120 0.4196 0.0508
H14 H 0.5918 0.3626 0.1633
H15 H 0.5743 0.3349 0.0282
H16 H 0.4777 0.2276 0.1926
H17 H 0.4589 0.2021 0.0563
H18 H 0.3260 0.2036 0.1003
H19 H 0.3298 0.2947 -0.1209
H20 H 0.1963 0.2992 -0.0780
H21 H 0.2717 0.3804 -0.0969

#END
