
#######################################################################
#
#                 Cambridge Crystallographic Data Centre
#                                CCDC 
#
#######################################################################
#
# If this CIF has been generated from an entry in the Cambridge 
# Structural Database, then it will include bibliographic, chemical, 
# crystal, experimental, refinement or atomic coordinate data resulting 
# from the CCDC's data processing and validation procedures.
#
#######################################################################

data_LABCEW
_symmetry_cell_setting           monoclinic
_symmetry_space_group_name_H-M   'P 21/a'
_symmetry_Int_Tables_number      14
_space_group_name_Hall           '-P 2yab'
loop_
_symmetry_equiv_pos_site_id
_symmetry_equiv_pos_as_xyz
1 x,y,z
2 1/2-x,1/2+y,-z
3 -x,-y,-z
4 1/2+x,1/2-y,z
_cell_length_a                   9.972(1)
_cell_length_b                   8.308(1)
_cell_length_c                   17.010(2)
_cell_angle_alpha                90
_cell_angle_beta                 97.371(4)
_cell_angle_gamma                90
_cell_volume                     1397.59
loop_
_atom_site_label
_atom_site_type_symbol
_atom_site_fract_x
_atom_site_fract_y
_atom_site_fract_z
Fe1 Fe 0.17081(4) 1.01917(5) 0.14798(2)
C1 C 0.1101(4) 0.8560(4) 0.2256(2)
C2 C 0.1470(4) 0.7765(4) 0.1582(2)
C3 C 0.0638(4) 0.8351(5) 0.0898(2)
C4 C -0.0247(4) 0.9486(5) 0.1153(2)
C5 C 0.0030(4) 0.9622(4) 0.1992(2)
C6 C 0.3283(3) 1.1451(4) 0.2078(2)
C7 C 0.2193(3) 1.2508(4) 0.1791(2)
C8 C 0.1976(4) 1.2340(4) 0.0943(2)
C9 C 0.2898(3) 1.1197(5) 0.0721(2)
C10 C 0.3713(3) 1.0638(5) 0.1415(2)
C11 C 0.3796(3) 1.1209(4) 0.2910(2)
C12 C 0.6549(3) 0.9630(4) 0.4158(2)
C13 C 0.7509(3) 0.9371(4) 0.3640(2)
C14 C 0.8738(4) 0.8734(5) 0.3950(2)
C15 C 0.9000(4) 0.8397(5) 0.4743(2)
C16 C 0.8001(3) 0.8701(4) 0.5208(2)
N1 N 0.4932(3) 1.0522(3) 0.3107(1)
N2 N 0.5293(3) 1.0261(4) 0.3899(2)
N3 N 0.6779(3) 0.9300(4) 0.4933(2)
H1 H 0.224 0.685 0.159
H2 H 0.069 0.800 0.029
H3 H -0.102 1.015 0.078
H4 H -0.050 1.040 0.236
H5 H 0.156 0.840 0.286
H6 H 0.451 0.976 0.144
H7 H 0.298 1.082 0.012
H8 H 0.123 1.298 0.054
H9 H 0.164 1.328 0.214
H10 H 0.321 1.161 0.337
H11 H 0.950 0.850 0.357
H12 H 0.996 0.790 0.499
H13 H 0.821 0.846 0.584
H14 H 0.467 1.041 0.428
H15 H 0.728 0.966 0.301
Fe1 Fe 0.32919(4) 0.51917(5) 0.85202(2)
C1 C 0.3899(4) 0.3560(4) 0.7744(2)
C2 C 0.3530(4) 0.2765(4) 0.8418(2)
C3 C 0.4362(4) 0.3351(5) 0.9102(2)
C4 C 0.5247(4) 0.4486(5) 0.8847(2)
C5 C 0.4970(4) 0.4622(4) 0.8008(2)
C6 C 0.1717(3) 0.6451(4) 0.7922(2)
C7 C 0.2807(3) 0.7508(4) 0.8209(2)
C8 C 0.3024(4) 0.7340(4) 0.9057(2)
C9 C 0.2102(3) 0.6197(5) 0.9279(2)
C10 C 0.1287(3) 0.5638(5) 0.8585(2)
C11 C 0.1204(3) 0.6209(4) 0.7090(2)
C12 C -0.1549(3) 0.4630(4) 0.5842(2)
C13 C -0.2509(3) 0.4371(4) 0.6360(2)
C14 C -0.3738(4) 0.3734(5) 0.6050(2)
C15 C -0.4000(4) 0.3397(5) 0.5257(2)
C16 C -0.3001(3) 0.3701(4) 0.4792(2)
N1 N 0.0068(3) 0.5522(3) 0.6893(1)
N2 N -0.0293(3) 0.5261(4) 0.6101(2)
N3 N -0.1779(3) 0.4300(4) 0.5067(2)
H1 H 0.276 0.185 0.841
H2 H 0.431 0.300 0.971
H3 H 0.602 0.515 0.922
H4 H 0.550 0.540 0.764
H5 H 0.344 0.340 0.714
H6 H 0.049 0.476 0.856
H7 H 0.202 0.582 0.988
H8 H 0.377 0.798 0.946
H9 H 0.336 0.828 0.786
H10 H 0.179 0.661 0.663
H11 H -0.450 0.350 0.643
H12 H -0.496 0.290 0.501
H13 H -0.321 0.346 0.416
H14 H 0.033 0.541 0.572
H15 H -0.228 0.466 0.699
Fe1 Fe 0.82919(4) -0.01917(5) 0.85202(2)
C1 C 0.8899(4) 0.1440(4) 0.7744(2)
C2 C 0.8530(4) 0.2235(4) 0.8418(2)
C3 C 0.9362(4) 0.1649(5) 0.9102(2)
C4 C 1.0247(4) 0.0514(5) 0.8847(2)
C5 C 0.9970(4) 0.0378(4) 0.8008(2)
C6 C 0.6717(3) -0.1451(4) 0.7922(2)
C7 C 0.7807(3) -0.2508(4) 0.8209(2)
C8 C 0.8024(4) -0.2340(4) 0.9057(2)
C9 C 0.7102(3) -0.1197(5) 0.9279(2)
C10 C 0.6287(3) -0.0638(5) 0.8585(2)
C11 C 0.6204(3) -0.1209(4) 0.7090(2)
C12 C 0.3451(3) 0.0370(4) 0.5842(2)
C13 C 0.2491(3) 0.0629(4) 0.6360(2)
C14 C 0.1262(4) 0.1266(5) 0.6050(2)
C15 C 0.1000(4) 0.1603(5) 0.5257(2)
C16 C 0.1999(3) 0.1299(4) 0.4792(2)
N1 N 0.5068(3) -0.0522(3) 0.6893(1)
N2 N 0.4707(3) -0.0261(4) 0.6101(2)
N3 N 0.3221(3) 0.0700(4) 0.5067(2)
H1 H 0.776 0.315 0.841
H2 H 0.931 0.200 0.971
H3 H 1.102 -0.015 0.922
H4 H 1.050 -0.040 0.764
H5 H 0.844 0.160 0.714
H6 H 0.549 0.024 0.856
H7 H 0.702 -0.082 0.988
H8 H 0.877 -0.298 0.946
H9 H 0.836 -0.328 0.786
H10 H 0.679 -0.161 0.663
H11 H 0.050 0.150 0.643
H12 H 0.004 0.210 0.501
H13 H 0.179 0.154 0.416
H14 H 0.533 -0.041 0.572
H15 H 0.272 0.034 0.699
Fe1 Fe 0.67081(4) 0.48083(5) 0.14798(2)
C1 C 0.6101(4) 0.6440(4) 0.2256(2)
C2 C 0.6470(4) 0.7235(4) 0.1582(2)
C3 C 0.5638(4) 0.6649(5) 0.0898(2)
C4 C 0.4753(4) 0.5514(5) 0.1153(2)
C5 C 0.5030(4) 0.5378(4) 0.1992(2)
C6 C 0.8283(3) 0.3549(4) 0.2078(2)
C7 C 0.7193(3) 0.2492(4) 0.1791(2)
C8 C 0.6976(4) 0.2660(4) 0.0943(2)
C9 C 0.7898(3) 0.3803(5) 0.0721(2)
C10 C 0.8713(3) 0.4362(5) 0.1415(2)
C11 C 0.8796(3) 0.3791(4) 0.2910(2)
C12 C 1.1549(3) 0.5370(4) 0.4158(2)
C13 C 1.2509(3) 0.5629(4) 0.3640(2)
C14 C 1.3738(4) 0.6266(5) 0.3950(2)
C15 C 1.4000(4) 0.6603(5) 0.4743(2)
C16 C 1.3001(3) 0.6299(4) 0.5208(2)
N1 N 0.9932(3) 0.4478(3) 0.3107(1)
N2 N 1.0293(3) 0.4739(4) 0.3899(2)
N3 N 1.1779(3) 0.5700(4) 0.4933(2)
H1 H 0.724 0.815 0.159
H2 H 0.569 0.700 0.029
H3 H 0.398 0.485 0.078
H4 H 0.450 0.460 0.236
H5 H 0.656 0.660 0.286
H6 H 0.951 0.524 0.144
H7 H 0.798 0.418 0.012
H8 H 0.623 0.202 0.054
H9 H 0.664 0.172 0.214
H10 H 0.821 0.339 0.337
H11 H 1.450 0.650 0.357
H12 H 1.496 0.710 0.499
H13 H 1.321 0.654 0.584
H14 H 0.967 0.459 0.428
H15 H 1.228 0.534 0.301

#END
