
#######################################################################
#
#                 Cambridge Crystallographic Data Centre
#                                CCDC 
#
#######################################################################
#
# If this CIF has been generated from an entry in the Cambridge 
# Structural Database, then it will include bibliographic, chemical, 
# crystal, experimental, refinement or atomic coordinate data resulting 
# from the CCDC's data processing and validation procedures.
#
#######################################################################

data_LABJED
_symmetry_cell_setting           monoclinic
_symmetry_space_group_name_H-M   'P 21/n'
_symmetry_Int_Tables_number      14
_space_group_name_Hall           '-P 2yn'
loop_
_symmetry_equiv_pos_site_id
_symmetry_equiv_pos_as_xyz
1 x,y,z
2 1/2-x,1/2+y,1/2-z
3 -x,-y,-z
4 1/2+x,1/2-y,1/2+z
_cell_length_a                   9.808(4)
_cell_length_b                   8.780(5)
_cell_length_c                   17.248(6)
_cell_angle_alpha                90
_cell_angle_beta                 101.70(4)
_cell_angle_gamma                90
_cell_volume                     1454.44
loop_
_atom_site_label
_atom_site_type_symbol
_atom_site_fract_x
_atom_site_fract_y
_atom_site_fract_z
C1 C 0.0857(5) 0.6993(6) 0.8444(3)
C2 C 0.0719(6) 0.5687(6) 0.8880(3)
C3 C -0.0587(7) 0.5050(8) 0.8848(4)
C4 C -0.1739(7) 0.5702(9) 0.8388(4)
C5 C -0.1631(7) 0.7003(8) 0.7951(4)
C6 C -0.0331(7) 0.7641(7) 0.7990(3)
N1 N 0.1932(6) 0.5075(6) 0.9355(3)
C7 C 0.2234(6) 0.3595(8) 0.9552(3)
C8 C 0.3617(8) 0.3337(9) 1.0073(5)
O1 O 0.1421(4) 0.2549(4) 0.9304(2)
C9 C 0.2253(5) 0.7654(6) 0.8404(3)
C10 C 0.2879(5) 0.8829(5) 0.8878(3)
C11 C 0.4103(6) 0.9504(7) 0.8753(3)
C12 C 0.4706(7) 0.8963(7) 0.8147(4)
C13 C 0.4143(6) 0.7779(8) 0.7682(3)
C14 C 0.2932(7) 0.7117(7) 0.7817(4)
N2 N 0.2255(5) 0.9414(6) 0.9496(3)
C15 C 0.2374(5) 0.8714(7) 1.0203(3)
C16 C 0.1681(8) 0.9537(8) 1.0790(4)
O2 O 0.2990(4) 0.7512(4) 1.0358(2)
H1 H -0.062(5) 0.424(6) 0.915(3)
H2 H -0.262(6) 0.525(6) 0.834(3)
H3 H -0.277(5) 0.742(5) 0.757(3)
H4 H -0.028(5) 0.853(6) 0.763(3)
H5 H 0.255(5) 0.567(6) 0.957(3)
H6 H 0.432(5) 0.315(6) 0.983(3)
H7 H 0.416(5) 0.412(6) 1.041(3)
H8 H 0.367(5) 0.251(6) 1.044(3)
H9 H 0.453(5) 1.044(6) 0.910(3)
H10 H 0.548(5) 0.948(6) 0.807(3)
H11 H 0.469(4) 0.715(5) 0.721(3)
H12 H 0.250(5) 0.637(6) 0.749(3)
H13 H 0.196(5) 1.022(6) 0.946(3)
H14 H 0.140(5) 1.065(6) 1.068(3)
H15 H 0.088(5) 0.916(6) 1.078(3)
H16 H 0.232(5) 0.947(5) 1.134(3)
C1 C 0.4143(5) 0.1993(6) 0.6556(3)
C2 C 0.4281(6) 0.0687(6) 0.6120(3)
C3 C 0.5587(7) 0.0050(8) 0.6152(4)
C4 C 0.6739(7) 0.0702(9) 0.6612(4)
C5 C 0.6631(7) 0.2003(8) 0.7049(4)
C6 C 0.5331(7) 0.2641(7) 0.7010(3)
N1 N 0.3068(6) 0.0075(6) 0.5645(3)
C7 C 0.2766(6) -0.1405(8) 0.5448(3)
C8 C 0.1383(8) -0.1663(9) 0.4927(5)
O1 O 0.3579(4) -0.2451(4) 0.5696(2)
C9 C 0.2747(5) 0.2654(6) 0.6596(3)
C10 C 0.2121(5) 0.3829(5) 0.6122(3)
C11 C 0.0897(6) 0.4504(7) 0.6247(3)
C12 C 0.0294(7) 0.3963(7) 0.6853(4)
C13 C 0.0857(6) 0.2779(8) 0.7318(3)
C14 C 0.2068(7) 0.2117(7) 0.7183(4)
N2 N 0.2745(5) 0.4414(6) 0.5504(3)
C15 C 0.2626(5) 0.3714(7) 0.4797(3)
C16 C 0.3319(8) 0.4537(8) 0.4210(4)
O2 O 0.2010(4) 0.2512(4) 0.4642(2)
H1 H 0.562(5) -0.076(6) 0.585(3)
H2 H 0.762(6) 0.025(6) 0.666(3)
H3 H 0.777(5) 0.242(5) 0.743(3)
H4 H 0.528(5) 0.353(6) 0.737(3)
H5 H 0.245(5) 0.067(6) 0.543(3)
H6 H 0.068(5) -0.185(6) 0.517(3)
H7 H 0.084(5) -0.088(6) 0.459(3)
H8 H 0.133(5) -0.249(6) 0.456(3)
H9 H 0.047(5) 0.544(6) 0.590(3)
H10 H -0.048(5) 0.448(6) 0.693(3)
H11 H 0.031(4) 0.215(5) 0.779(3)
H12 H 0.250(5) 0.137(6) 0.751(3)
H13 H 0.304(5) 0.522(6) 0.554(3)
H14 H 0.360(5) 0.565(6) 0.432(3)
H15 H 0.412(5) 0.416(6) 0.422(3)
H16 H 0.268(5) 0.447(5) 0.366(3)
C1 C 0.9143(5) 0.3007(6) 0.1556(3)
C2 C 0.9281(6) 0.4313(6) 0.1120(3)
C3 C 1.0587(7) 0.4950(8) 0.1152(4)
C4 C 1.1739(7) 0.4298(9) 0.1612(4)
C5 C 1.1631(7) 0.2997(8) 0.2049(4)
C6 C 1.0331(7) 0.2359(7) 0.2010(3)
N1 N 0.8068(6) 0.4925(6) 0.0645(3)
C7 C 0.7766(6) 0.6405(8) 0.0448(3)
C8 C 0.6383(8) 0.6663(9) -0.0073(5)
O1 O 0.8579(4) 0.7451(4) 0.0696(2)
C9 C 0.7747(5) 0.2346(6) 0.1596(3)
C10 C 0.7121(5) 0.1171(5) 0.1122(3)
C11 C 0.5897(6) 0.0496(7) 0.1247(3)
C12 C 0.5294(7) 0.1037(7) 0.1853(4)
C13 C 0.5857(6) 0.2221(8) 0.2318(3)
C14 C 0.7068(7) 0.2883(7) 0.2183(4)
N2 N 0.7745(5) 0.0586(6) 0.0504(3)
C15 C 0.7626(5) 0.1286(7) -0.0203(3)
C16 C 0.8319(8) 0.0463(8) -0.0790(4)
O2 O 0.7010(4) 0.2488(4) -0.0358(2)
H1 H 1.062(5) 0.576(6) 0.085(3)
H2 H 1.262(6) 0.475(6) 0.166(3)
H3 H 1.277(5) 0.258(5) 0.243(3)
H4 H 1.028(5) 0.147(6) 0.237(3)
H5 H 0.745(5) 0.433(6) 0.043(3)
H6 H 0.568(5) 0.685(6) 0.017(3)
H7 H 0.584(5) 0.588(6) -0.041(3)
H8 H 0.633(5) 0.749(6) -0.044(3)
H9 H 0.547(5) -0.044(6) 0.090(3)
H10 H 0.452(5) 0.052(6) 0.193(3)
H11 H 0.531(4) 0.285(5) 0.279(3)
H12 H 0.750(5) 0.363(6) 0.251(3)
H13 H 0.804(5) -0.022(6) 0.054(3)
H14 H 0.860(5) -0.065(6) -0.068(3)
H15 H 0.912(5) 0.084(6) -0.078(3)
H16 H 0.768(5) 0.053(5) -0.134(3)
C1 C 0.5857(5) 0.8007(6) 0.3444(3)
C2 C 0.5719(6) 0.9313(6) 0.3880(3)
C3 C 0.4413(7) 0.9950(8) 0.3848(4)
C4 C 0.3261(7) 0.9298(9) 0.3388(4)
C5 C 0.3369(7) 0.7997(8) 0.2951(4)
C6 C 0.4669(7) 0.7359(7) 0.2990(3)
N1 N 0.6932(6) 0.9925(6) 0.4355(3)
C7 C 0.7234(6) 1.1405(8) 0.4552(3)
C8 C 0.8617(8) 1.1663(9) 0.5073(5)
O1 O 0.6421(4) 1.2451(4) 0.4304(2)
C9 C 0.7253(5) 0.7346(6) 0.3404(3)
C10 C 0.7879(5) 0.6171(5) 0.3878(3)
C11 C 0.9103(6) 0.5496(7) 0.3753(3)
C12 C 0.9706(7) 0.6037(7) 0.3147(4)
C13 C 0.9143(6) 0.7221(8) 0.2682(3)
C14 C 0.7932(7) 0.7883(7) 0.2817(4)
N2 N 0.7255(5) 0.5586(6) 0.4496(3)
C15 C 0.7374(5) 0.6286(7) 0.5203(3)
C16 C 0.6681(8) 0.5463(8) 0.5790(4)
O2 O 0.7990(4) 0.7488(4) 0.5358(2)
H1 H 0.438(5) 1.076(6) 0.415(3)
H2 H 0.238(6) 0.975(6) 0.334(3)
H3 H 0.223(5) 0.758(5) 0.257(3)
H4 H 0.472(5) 0.647(6) 0.263(3)
H5 H 0.755(5) 0.933(6) 0.457(3)
H6 H 0.932(5) 1.185(6) 0.483(3)
H7 H 0.916(5) 1.088(6) 0.541(3)
H8 H 0.867(5) 1.249(6) 0.544(3)
H9 H 0.953(5) 0.456(6) 0.410(3)
H10 H 1.048(5) 0.552(6) 0.307(3)
H11 H 0.969(4) 0.785(5) 0.221(3)
H12 H 0.750(5) 0.863(6) 0.249(3)
H13 H 0.696(5) 0.478(6) 0.446(3)
H14 H 0.640(5) 0.435(6) 0.568(3)
H15 H 0.588(5) 0.584(6) 0.578(3)
H16 H 0.732(5) 0.553(5) 0.634(3)

#END
