
#######################################################################
#
#                 Cambridge Crystallographic Data Centre
#                                CCDC 
#
#######################################################################
#
# If this CIF has been generated from an entry in the Cambridge 
# Structural Database, then it will include bibliographic, chemical, 
# crystal, experimental, refinement or atomic coordinate data resulting 
# from the CCDC's data processing and validation procedures.
#
#######################################################################

data_LABJIH
_symmetry_cell_setting           monoclinic
_symmetry_space_group_name_H-M   'P 21'
_symmetry_Int_Tables_number      4
_space_group_name_Hall           'P 2yb'
loop_
_symmetry_equiv_pos_site_id
_symmetry_equiv_pos_as_xyz
1 x,y,z
2 -x,1/2+y,-z
_cell_length_a                   6.9196(5)
_cell_length_b                   7.673(8)
_cell_length_c                   18.554(1)
_cell_angle_alpha                90
_cell_angle_beta                 92.547(6)
_cell_angle_gamma                90
_cell_volume                     984.135
loop_
_atom_site_label
_atom_site_type_symbol
_atom_site_fract_x
_atom_site_fract_y
_atom_site_fract_z
C1 C 0.7281(5) 0.1384 0.1594(2)
C2 C 0.9043(5) 0.2123(6) 0.1379(2)
C3 C 1.0440(5) 0.2515(7) 0.1907(2)
C4 C 1.0136(4) 0.2192(6) 0.2624(1)
C5 C 0.8414(4) 0.1486(6) 0.2833(2)
C6 C 0.7006(5) 0.1090(6) 0.2323(2)
N1 N 0.5832(6) 0.0955(7) 0.1101(2)
C7 C 0.9378(8) 0.2461(8) 0.0596(2)
N2 N 1.1618(4) 0.2629(5) 0.3164(1)
O1 O 1.1280(4) 0.2411(6) 0.3801(1)
O2 O 1.3153(4) 0.3197(7) 0.2981(1)
H1 H 1.159(4) 0.295(4) 0.179(2)
H2 H 0.833(4) 0.140(5) 0.331(2)
H3 H 0.580(5) 0.068(4) 0.244(2)
H4 H 0.626(5) 0.113(6) 0.066(2)
H5 H 0.451(9) 0.05(1) 0.127(3)
H6 H 0.835(7) 0.325(9) 0.041(3)
H7 H 0.956(7) 0.13(1) 0.030(3)
H8 H 1.072(5) 0.271(6) 0.051(2)
C1 C 0.2719(5) 0.6384 0.8406(2)
C2 C 0.0957(5) 0.7123(6) 0.8621(2)
C3 C -0.0440(5) 0.7515(7) 0.8093(2)
C4 C -0.0136(4) 0.7192(6) 0.7376(1)
C5 C 0.1586(4) 0.6486(6) 0.7167(2)
C6 C 0.2994(5) 0.6090(6) 0.7677(2)
N1 N 0.4168(6) 0.5955(7) 0.8899(2)
C7 C 0.0622(8) 0.7461(8) 0.9404(2)
N2 N -0.1618(4) 0.7629(5) 0.6836(1)
O1 O -0.1280(4) 0.7411(6) 0.6199(1)
O2 O -0.3153(4) 0.8197(7) 0.7019(1)
H1 H -0.159(4) 0.795(4) 0.821(2)
H2 H 0.167(4) 0.640(5) 0.669(2)
H3 H 0.420(5) 0.568(4) 0.756(2)
H4 H 0.374(5) 0.613(6) 0.934(2)
H5 H 0.549(9) 0.55(1) 0.873(3)
H6 H 0.165(7) 0.825(9) 0.959(3)
H7 H 0.044(7) 0.63(1) 0.970(3)
H8 H -0.072(5) 0.771(6) 0.949(2)
C8 C -0.0316(4) 0.6978(6) 0.2680(1)
C9 C -0.2092(4) 0.6155(6) 0.2820(2)
C10 C -0.3455(5) 0.5808(6) 0.2296(2)
C11 C -0.3131(4) 0.6272(6) 0.1589(2)
C12 C -0.1464(4) 0.7068(6) 0.1411(2)
C13 C -0.0052(4) 0.7427(6) 0.1942(1)
N3 N 0.1023(3) 0.7302(6) 0.3209(1)
C14 C 0.0879(4) 0.6884(6) 0.3963(2)
C15 C -0.0425(5) 0.8161(8) 0.4354(2)
C16 C 0.2919(4) 0.6954(6) 0.4295(2)
O3 O 0.4302(3) 0.7421(6) 0.3986(1)
O4 O 0.2963(3) 0.6492(6) 0.4977(1)
C17 C 0.4805(8) 0.665(1) 0.5384(3)
N4 N 0.1649(3) 0.8304(5) 0.1718(1)
O5 O 0.2979(3) 0.8611(6) 0.2166(1)
O6 O 0.1752(3) 0.8742(6) 0.1085(1)
N5 N -0.4594(4) 0.5892(6) 0.1017(2)
O7 O -0.4255(4) 0.6290(8) 0.0405(1)
O8 O -0.6106(4) 0.5206(6) 0.1186(2)
H9 H -0.234(4) 0.584(4) 0.329(2)
H10 H -0.466(5) 0.538(5) 0.241(2)
H11 H -0.122(4) 0.736(5) 0.098(2)
H12 H 0.216(5) 0.776(5) 0.306(2)
H13 H 0.039(5) 0.576(6) 0.403(2)
H14 H -0.178(5) 0.808(5) 0.418(2)
H15 H -0.043(5) 0.787(6) 0.486(2)
H16 H 0.016(6) 0.929(6) 0.434(2)
H17 H 0.460(5) 0.624(6) 0.582(2)
H18 H 0.523(8) 0.78(1) 0.535(3)
H19 H 0.575(7) 0.599(9) 0.512(3)
C8 C 1.0316(4) 0.1978(6) 0.7320(1)
C9 C 1.2092(4) 0.1155(6) 0.7180(2)
C10 C 1.3455(5) 0.0808(6) 0.7704(2)
C11 C 1.3131(4) 0.1272(6) 0.8411(2)
C12 C 1.1464(4) 0.2068(6) 0.8589(2)
C13 C 1.0052(4) 0.2427(6) 0.8058(1)
N3 N 0.8977(3) 0.2302(6) 0.6791(1)
C14 C 0.9121(4) 0.1884(6) 0.6037(2)
C15 C 1.0425(5) 0.3161(8) 0.5646(2)
C16 C 0.7081(4) 0.1954(6) 0.5705(2)
O3 O 0.5698(3) 0.2421(6) 0.6014(1)
O4 O 0.7037(3) 0.1492(6) 0.5023(1)
C17 C 0.5195(8) 0.165(1) 0.4616(3)
N4 N 0.8351(3) 0.3304(5) 0.8282(1)
O5 O 0.7021(3) 0.3611(6) 0.7834(1)
O6 O 0.8248(3) 0.3742(6) 0.8915(1)
N5 N 1.4594(4) 0.0892(6) 0.8983(2)
O7 O 1.4255(4) 0.1290(8) 0.9595(1)
O8 O 1.6106(4) 0.0206(6) 0.8814(2)
H9 H 1.234(4) 0.084(4) 0.671(2)
H10 H 1.466(5) 0.038(5) 0.759(2)
H11 H 1.122(4) 0.236(5) 0.902(2)
H12 H 0.784(5) 0.276(5) 0.694(2)
H13 H 0.961(5) 0.076(6) 0.597(2)
H14 H 1.178(5) 0.308(5) 0.582(2)
H15 H 1.043(5) 0.287(6) 0.514(2)
H16 H 0.984(6) 0.429(6) 0.566(2)
H17 H 0.540(5) 0.124(6) 0.418(2)
H18 H 0.477(8) 0.28(1) 0.465(3)
H19 H 0.425(7) 0.099(9) 0.488(3)

#END
