./LABJON_from_POSCAR.cif_generated_by_CrystalShift
_symmetry_cell_setting triclinic
_symmetry_space_group_name_H-M 'P 1'
loop_
_symmetry_equiv_pos_site_id
_symmetry_equiv_pos_as_xyz
1 x,y,z
_cell_length_a 7.845000
_cell_length_b 6.462000
_cell_length_c 18.920000
_cell_angle_alpha 90.000000
_cell_angle_beta 93.180000
_cell_angle_gamma 90.000000
_cell_volume 957.660968
loop_
_atom_site_label
_atom_site_type_symbol
_atom_site_fract_x
_atom_site_fract_y
_atom_site_fract_z
H1 H 0.888000 0.471000 1.062000
H2 H 0.690000 0.673000 0.963000
H3 H 0.573000 0.762000 0.845000
H4 H 0.425000 0.766000 0.901000
H5 H 0.367000 1.264000 0.798000
H6 H 0.612000 -0.029000 0.438000
H7 H 0.413000 0.096000 0.330000
H8 H 0.810000 0.173000 0.537000
H9 H 0.927000 0.262000 0.655000
H10 H 1.075000 0.266000 0.599000
H11 H 1.133000 0.764000 0.702000
H12 H 0.112000 0.529000 -0.062000
H13 H -0.087000 0.404000 -0.170000
H14 H 0.310000 0.327000 0.037000
H15 H 0.427000 0.238000 0.155000
H16 H 0.575000 0.234000 0.099000
H17 H 0.633000 -0.264000 0.202000
H18 H -0.133000 0.236000 0.298000
H19 H -0.075000 0.734000 0.401000
H20 H 0.073000 0.738000 0.345000
H21 H 0.190000 0.827000 0.463000
H22 H 0.587000 0.904000 0.670000
H23 H 0.388000 1.029000 0.562000
H24 H 1.087000 0.596000 1.170000
C25 C 0.916100 0.602600 1.078200
C26 C 1.018800 0.666900 1.136900
C27 C 1.009700 0.873800 1.135500
C28 C 0.851000 0.773600 1.045500
C29 C 0.735700 0.802300 0.984600
C30 C 0.495500 0.842600 0.868300
C31 C 0.385500 0.964000 0.815500
C32 C 0.534200 1.200000 0.885300
C33 C 0.465800 -0.200000 0.114700
C34 C 0.614500 0.036000 0.184500
C35 C 0.504500 0.157400 0.131700
C36 C 0.264300 0.197700 0.015400
C37 C 0.149000 0.226400 -0.045500
C38 C -0.009700 0.126200 -0.135500
C39 C -0.018800 0.333100 -0.136900
C40 C 0.083900 0.397400 -0.078200
C41 C 0.416100 0.897400 0.578200
C42 C 0.518800 0.833100 0.636900
C43 C 0.509700 0.626200 0.635500
C44 C 0.351000 0.726400 0.545500
C45 C 0.235700 0.697700 0.484600
C46 C -0.004500 0.657400 0.368300
C47 C 0.034200 0.300000 0.385300
C48 C -0.114500 0.536000 0.315500
C49 C 0.583900 0.102600 0.421800
C50 C 0.481200 0.166900 0.363100
C51 C 0.490300 0.373800 0.364500
C52 C 0.649000 0.273600 0.454500
C53 C 0.764300 0.302300 0.515400
C54 C 1.004500 0.342600 0.631700
C55 C 1.114500 0.464000 0.684500
C56 C 0.965800 0.700000 0.614700
N57 N 0.413000 0.523900 0.319000
N58 N 0.806700 0.486400 0.534200
N59 N 0.915800 0.506000 0.592400
N60 N 1.082600 0.666900 0.672000
N61 N 0.415800 -0.006000 0.092400
N62 N 0.306700 0.013600 0.034200
N63 N -0.087000 -0.023900 -0.181000
N64 N 1.087000 1.023900 1.181000
N65 N 0.693300 0.986400 0.965800
N66 N 0.587000 0.476100 0.681000
N67 N 0.193300 0.513600 0.465800
N68 N 0.084200 0.494000 0.407600
N69 N -0.082600 0.333100 0.328000
N70 N 0.582600 -0.166900 0.172000
N71 N 0.584200 1.006000 0.907600
N72 N 0.417400 1.166900 0.828000
O73 O 1.069700 1.205100 1.165200
O74 O 1.171200 0.961500 1.233400
O75 O 0.909100 0.946500 1.081000
O76 O 0.287400 0.895600 0.770000
O77 O 0.920500 0.863400 0.590800
O78 O 1.212600 0.395600 0.730000
O79 O 0.590900 0.446500 0.419000
O80 O 0.430300 0.705100 0.334800
O81 O 0.328800 0.461500 0.266600
O82 O 0.579500 1.363400 0.909200
O83 O -0.171200 0.038500 -0.233400
O84 O -0.069700 -0.205100 -0.165200
O85 O 0.090900 0.053500 -0.081000
O86 O 0.712600 0.104400 0.230000
O87 O 0.671200 0.538500 0.733400
O88 O 0.569700 0.294900 0.665200
O89 O 0.409100 0.553500 0.581000
O90 O -0.212600 0.604400 0.270000
O91 O 0.420500 -0.363400 0.090800
O92 O 0.079500 0.136600 0.409200

#END
