
#######################################################################
#
#                 Cambridge Crystallographic Data Centre
#                                CCDC 
#
#######################################################################
#
# If this CIF has been generated from an entry in the Cambridge 
# Structural Database, then it will include bibliographic, chemical, 
# crystal, experimental, refinement or atomic coordinate data resulting 
# from the CCDC's data processing and validation procedures.
#
#######################################################################

data_LABKEE
_symmetry_cell_setting           monoclinic
_symmetry_space_group_name_H-M   'P 21/c'
_symmetry_Int_Tables_number      14
_space_group_name_Hall           '-P 2ybc'
loop_
_symmetry_equiv_pos_site_id
_symmetry_equiv_pos_as_xyz
1 x,y,z
2 -x,1/2+y,1/2-z
3 -x,-y,-z
4 x,1/2-y,1/2+z
_cell_length_a                   9.564(2)
_cell_length_b                   11.305(1)
_cell_length_c                   20.389(3)
_cell_angle_alpha                90
_cell_angle_beta                 91.27(1)
_cell_angle_gamma                90
_cell_volume                     2203.94
loop_
_atom_site_label
_atom_site_type_symbol
_atom_site_fract_x
_atom_site_fract_y
_atom_site_fract_z
O1 O 0.1538(4) 1.2592(3) 0.0152(2)
O2 O 0.5450(3) 0.8708(3) -0.0780(2)
N1 N 0.1844(3) 1.0583(3) 0.0185(2)
N2 N 0.2892(4) 1.1761(3) -0.0633(2)
N3 N 0.0978(3) 1.0413(3) 0.0735(2)
N4 N -0.1359(4) 1.0790(4) 0.3662(2)
C1 C 0.2065(5) 1.1721(4) -0.0093(2)
C2 C 0.3533(4) 1.0804(4) -0.0849(2)
C3 C 0.3334(4) 0.9664(3) -0.0564(2)
C4 C 0.2431(4) 0.9594(4) -0.0053(2)
C5 C 0.4188(4) 0.8605(4) -0.0706(2)
C6 C 0.1393(4) 1.1022(4) 0.1237(2)
C7 C -0.1075(7) 1.1702(6) 0.4171(3)
C8 C -0.2386(6) 0.9869(6) 0.3799(3)
C9 C 0.4447(4) 1.0988(4) -0.1421(2)
C10 C 0.5241(6) 1.2015(5) -0.1463(3)
C11 C 0.6133(6) 1.2184(5) -0.1979(3)
C12 C 0.6237(6) 1.1337(6) -0.2462(3)
C13 C 0.5446(6) 1.0309(5) -0.2437(2)
C14 C 0.4554(5) 1.0134(4) -0.1919(2)
C15 C 0.3514(4) 0.7426(3) -0.0735(2)
C16 C 0.2094(4) 0.7285(4) -0.0887(2)
C17 C 0.1531(5) 0.6153(4) -0.0935(2)
C18 C 0.2367(6) 0.5172(4) -0.0828(3)
C19 C 0.3774(5) 0.5313(4) -0.0675(2)
C20 C 0.4348(5) 0.6429(4) -0.0629(2)
C21 C 0.0663(4) 1.0935(4) 0.1853(2)
C22 C 0.1067(5) 1.1667(4) 0.2371(2)
C23 C 0.0417(5) 1.1637(4) 0.2966(2)
C24 C -0.0685(4) 1.0837(4) 0.3073(2)
C25 C -0.1064(4) 1.0077(4) 0.2554(2)
C26 C -0.0420(4) 1.0135(4) 0.1962(2)
H1 H 0.2207 0.8907 0.0156
H2 H 0.2207 1.1406 0.1152
H3 H 0.5146 1.2623 -0.1121
H4 H 0.6723 1.2908 -0.1998
H5 H 0.6879 1.1436 -0.2821
H6 H 0.5535 0.9727 -0.2784
H7 H 0.3996 0.9403 -0.1900
H8 H 0.1488 0.7971 -0.0966
H9 H 0.0543 0.6046 -0.1058
H10 H 0.1941 0.4381 -0.0855
H11 H 0.4380 0.4623 -0.0600
H12 H 0.5335 0.6539 -0.0517
H13 H 0.1826 1.2225 0.2301
H14 H 0.0719 1.2170 0.3320
H15 H -0.1794 0.9491 0.2616
H16 H -0.0738 0.9629 0.1607
H17 H -0.0166 1.1586 0.4357
H18 H -0.1749 1.1641 0.4503
H19 H -0.1128 1.2446 0.3976
H20 H -0.3180 0.9969 0.3515
H21 H -0.1983 0.9114 0.3727
H22 H -0.2663 0.9930 0.4241
O1 O 0.8462(4) 0.7592(3) 0.4848(2)
O2 O 0.4550(3) 0.3708(3) 0.5780(2)
N1 N 0.8156(3) 0.5583(3) 0.4815(2)
N2 N 0.7108(4) 0.6761(3) 0.5633(2)
N3 N 0.9022(3) 0.5413(3) 0.4265(2)
N4 N 1.1359(4) 0.5790(4) 0.1338(2)
C1 C 0.7935(5) 0.6721(4) 0.5093(2)
C2 C 0.6467(4) 0.5804(4) 0.5849(2)
C3 C 0.6666(4) 0.4664(3) 0.5564(2)
C4 C 0.7569(4) 0.4594(4) 0.5053(2)
C5 C 0.5812(4) 0.3605(4) 0.5706(2)
C6 C 0.8607(4) 0.6022(4) 0.3763(2)
C7 C 1.1075(7) 0.6702(6) 0.0829(3)
C8 C 1.2386(6) 0.4869(6) 0.1201(3)
C9 C 0.5553(4) 0.5988(4) 0.6421(2)
C10 C 0.4759(6) 0.7015(5) 0.6463(3)
C11 C 0.3867(6) 0.7184(5) 0.6979(3)
C12 C 0.3763(6) 0.6337(6) 0.7462(3)
C13 C 0.4554(6) 0.5309(5) 0.7437(2)
C14 C 0.5446(5) 0.5134(4) 0.6919(2)
C15 C 0.6486(4) 0.2426(3) 0.5735(2)
C16 C 0.7906(4) 0.2285(4) 0.5887(2)
C17 C 0.8469(5) 0.1153(4) 0.5935(2)
C18 C 0.7633(6) 0.0172(4) 0.5828(3)
C19 C 0.6226(5) 0.0313(4) 0.5675(2)
C20 C 0.5652(5) 0.1429(4) 0.5629(2)
C21 C 0.9337(4) 0.5935(4) 0.3147(2)
C22 C 0.8933(5) 0.6667(4) 0.2629(2)
C23 C 0.9583(5) 0.6637(4) 0.2034(2)
C24 C 1.0685(4) 0.5837(4) 0.1927(2)
C25 C 1.1064(4) 0.5077(4) 0.2446(2)
C26 C 1.0420(4) 0.5135(4) 0.3038(2)
H1 H 0.7793 0.3907 0.4844
H2 H 0.7793 0.6406 0.3848
H3 H 0.4854 0.7623 0.6121
H4 H 0.3277 0.7908 0.6998
H5 H 0.3121 0.6436 0.7821
H6 H 0.4465 0.4727 0.7784
H7 H 0.6004 0.4403 0.6900
H8 H 0.8512 0.2971 0.5966
H9 H 0.9457 0.1046 0.6058
H10 H 0.8059 -0.0619 0.5855
H11 H 0.5620 -0.0377 0.5600
H12 H 0.4665 0.1539 0.5517
H13 H 0.8174 0.7225 0.2699
H14 H 0.9281 0.7170 0.1680
H15 H 1.1794 0.4491 0.2384
H16 H 1.0738 0.4629 0.3393
H17 H 1.0166 0.6586 0.0643
H18 H 1.1749 0.6641 0.0497
H19 H 1.1128 0.7446 0.1024
H20 H 1.3180 0.4969 0.1485
H21 H 1.1983 0.4114 0.1273
H22 H 1.2663 0.4930 0.0759
O1 O 0.8462(4) -0.2592(3) 0.9848(2)
O2 O 0.4550(3) 0.1292(3) 1.0780(2)
N1 N 0.8156(3) -0.0583(3) 0.9815(2)
N2 N 0.7108(4) -0.1761(3) 1.0633(2)
N3 N 0.9022(3) -0.0413(3) 0.9265(2)
N4 N 1.1359(4) -0.0790(4) 0.6338(2)
C1 C 0.7935(5) -0.1721(4) 1.0093(2)
C2 C 0.6467(4) -0.0804(4) 1.0849(2)
C3 C 0.6666(4) 0.0336(3) 1.0564(2)
C4 C 0.7569(4) 0.0406(4) 1.0053(2)
C5 C 0.5812(4) 0.1395(4) 1.0706(2)
C6 C 0.8607(4) -0.1022(4) 0.8763(2)
C7 C 1.1075(7) -0.1702(6) 0.5829(3)
C8 C 1.2386(6) 0.0131(6) 0.6201(3)
C9 C 0.5553(4) -0.0988(4) 1.1421(2)
C10 C 0.4759(6) -0.2015(5) 1.1463(3)
C11 C 0.3867(6) -0.2184(5) 1.1979(3)
C12 C 0.3763(6) -0.1337(6) 1.2462(3)
C13 C 0.4554(6) -0.0309(5) 1.2437(2)
C14 C 0.5446(5) -0.0134(4) 1.1919(2)
C15 C 0.6486(4) 0.2574(3) 1.0735(2)
C16 C 0.7906(4) 0.2715(4) 1.0887(2)
C17 C 0.8469(5) 0.3847(4) 1.0935(2)
C18 C 0.7633(6) 0.4828(4) 1.0828(3)
C19 C 0.6226(5) 0.4687(4) 1.0675(2)
C20 C 0.5652(5) 0.3571(4) 1.0629(2)
C21 C 0.9337(4) -0.0935(4) 0.8147(2)
C22 C 0.8933(5) -0.1667(4) 0.7629(2)
C23 C 0.9583(5) -0.1637(4) 0.7034(2)
C24 C 1.0685(4) -0.0837(4) 0.6927(2)
C25 C 1.1064(4) -0.0077(4) 0.7446(2)
C26 C 1.0420(4) -0.0135(4) 0.8038(2)
H1 H 0.7793 0.1093 0.9844
H2 H 0.7793 -0.1406 0.8848
H3 H 0.4854 -0.2623 1.1121
H4 H 0.3277 -0.2908 1.1998
H5 H 0.3121 -0.1436 1.2821
H6 H 0.4465 0.0273 1.2784
H7 H 0.6004 0.0597 1.1900
H8 H 0.8512 0.2029 1.0966
H9 H 0.9457 0.3954 1.1058
H10 H 0.8059 0.5619 1.0855
H11 H 0.5620 0.5377 1.0600
H12 H 0.4665 0.3461 1.0517
H13 H 0.8174 -0.2225 0.7699
H14 H 0.9281 -0.2170 0.6680
H15 H 1.1794 0.0509 0.7384
H16 H 1.0738 0.0371 0.8393
H17 H 1.0166 -0.1586 0.5643
H18 H 1.1749 -0.1641 0.5497
H19 H 1.1128 -0.2446 0.6024
H20 H 1.3180 0.0031 0.6485
H21 H 1.1983 0.0886 0.6273
H22 H 1.2663 0.0070 0.5759
O1 O 0.1538(4) 0.2408(3) 0.5152(2)
O2 O 0.5450(3) 0.6292(3) 0.4220(2)
N1 N 0.1844(3) 0.4417(3) 0.5185(2)
N2 N 0.2892(4) 0.3239(3) 0.4367(2)
N3 N 0.0978(3) 0.4587(3) 0.5735(2)
N4 N -0.1359(4) 0.4210(4) 0.8662(2)
C1 C 0.2065(5) 0.3279(4) 0.4907(2)
C2 C 0.3533(4) 0.4196(4) 0.4151(2)
C3 C 0.3334(4) 0.5336(3) 0.4436(2)
C4 C 0.2431(4) 0.5406(4) 0.4947(2)
C5 C 0.4188(4) 0.6395(4) 0.4294(2)
C6 C 0.1393(4) 0.3978(4) 0.6237(2)
C7 C -0.1075(7) 0.3298(6) 0.9171(3)
C8 C -0.2386(6) 0.5131(6) 0.8799(3)
C9 C 0.4447(4) 0.4012(4) 0.3579(2)
C10 C 0.5241(6) 0.2985(5) 0.3537(3)
C11 C 0.6133(6) 0.2816(5) 0.3021(3)
C12 C 0.6237(6) 0.3663(6) 0.2538(3)
C13 C 0.5446(6) 0.4691(5) 0.2563(2)
C14 C 0.4554(5) 0.4866(4) 0.3081(2)
C15 C 0.3514(4) 0.7574(3) 0.4265(2)
C16 C 0.2094(4) 0.7715(4) 0.4113(2)
C17 C 0.1531(5) 0.8847(4) 0.4065(2)
C18 C 0.2367(6) 0.9828(4) 0.4172(3)
C19 C 0.3774(5) 0.9687(4) 0.4325(2)
C20 C 0.4348(5) 0.8571(4) 0.4371(2)
C21 C 0.0663(4) 0.4065(4) 0.6853(2)
C22 C 0.1067(5) 0.3333(4) 0.7371(2)
C23 C 0.0417(5) 0.3363(4) 0.7966(2)
C24 C -0.0685(4) 0.4163(4) 0.8073(2)
C25 C -0.1064(4) 0.4923(4) 0.7554(2)
C26 C -0.0420(4) 0.4865(4) 0.6962(2)
H1 H 0.2207 0.6093 0.5156
H2 H 0.2207 0.3594 0.6152
H3 H 0.5146 0.2377 0.3879
H4 H 0.6723 0.2092 0.3002
H5 H 0.6879 0.3564 0.2179
H6 H 0.5535 0.5273 0.2216
H7 H 0.3996 0.5597 0.3100
H8 H 0.1488 0.7029 0.4034
H9 H 0.0543 0.8954 0.3942
H10 H 0.1941 1.0619 0.4145
H11 H 0.4380 1.0377 0.4400
H12 H 0.5335 0.8461 0.4483
H13 H 0.1826 0.2775 0.7301
H14 H 0.0719 0.2830 0.8320
H15 H -0.1794 0.5509 0.7616
H16 H -0.0738 0.5371 0.6607
H17 H -0.0166 0.3414 0.9357
H18 H -0.1749 0.3359 0.9503
H19 H -0.1128 0.2554 0.8976
H20 H -0.3180 0.5031 0.8515
H21 H -0.1983 0.5886 0.8727
H22 H -0.2663 0.5070 0.9241

#END
