
#######################################################################
#
#                 Cambridge Crystallographic Data Centre
#                                CCDC 
#
#######################################################################
#
# If this CIF has been generated from an entry in the Cambridge 
# Structural Database, then it will include bibliographic, chemical, 
# crystal, experimental, refinement or atomic coordinate data resulting 
# from the CCDC's data processing and validation procedures.
#
#######################################################################

data_LABMEH
_symmetry_cell_setting           monoclinic
_symmetry_space_group_name_H-M   'P 21/n'
_symmetry_Int_Tables_number      14
_space_group_name_Hall           '-P 2yn'
loop_
_symmetry_equiv_pos_site_id
_symmetry_equiv_pos_as_xyz
1 x,y,z
2 1/2+x,1/2-y,1/2+z
3 -x,-y,-z
4 1/2-x,1/2+y,1/2-z
_cell_length_a                   13.7244(15)
_cell_length_b                   23.829(3)
_cell_length_c                   16.4013(17)
_cell_angle_alpha                90
_cell_angle_beta                 91.404(2)
_cell_angle_gamma                90
_cell_volume                     5362.25
loop_
_atom_site_label
_atom_site_type_symbol
_atom_site_fract_x
_atom_site_fract_y
_atom_site_fract_z
Pd1 Pd 0.24054(5) 0.36797(3) 0.35795(3)
Br1 Br 0.24078(7) 0.42456(4) 0.48092(5)
Br2 Br 0.24378(6) 0.44830(3) 0.26551(5)
S1 S 0.24112(16) 0.31240(8) 0.24314(12)
C1 C 0.2431(6) 0.2489(3) 0.2856(4)
C2 C 0.2456(6) 0.2397(3) 0.3749(4)
S2 S 0.24084(16) 0.29186(9) 0.44113(11)
N1 N 0.2457(5) 0.1989(3) 0.2513(4)
C3 C 0.2491(6) 0.1563(3) 0.3110(4)
S3 S 0.24842(17) 0.08874(9) 0.29793(12)
N2 N 0.2512(5) 0.1850(2) 0.3866(3)
C4 C 0.2436(6) 0.1878(3) 0.1626(4)
H1 H 0.2675 0.1493 0.1525
H2 H 0.2876 0.2144 0.1353
C5 C 0.1416(6) 0.1938(4) 0.1267(5)
H3 H 0.1421 0.1858 0.0682
H4 H 0.1185 0.2323 0.1353
H5 H 0.0980 0.1674 0.1536
C6 C 0.2504(6) 0.1569(3) 0.4658(4)
H6 H 0.2879 0.1795 0.5063
H7 H 0.2827 0.1199 0.4614
C7 C 0.1480(6) 0.1485(4) 0.4953(5)
H8 H 0.1505 0.1300 0.5487
H9 H 0.1113 0.1251 0.4562
H10 H 0.1159 0.1851 0.5002
Pd1 Pd 0.74054(5) 0.13203(3) 0.85795(3)
Br1 Br 0.74078(7) 0.07544(4) 0.98092(5)
Br2 Br 0.74378(6) 0.05170(3) 0.76551(5)
S1 S 0.74112(16) 0.18760(8) 0.74314(12)
C1 C 0.7431(6) 0.2511(3) 0.7856(4)
C2 C 0.7456(6) 0.2603(3) 0.8749(4)
S2 S 0.74084(16) 0.20814(9) 0.94113(11)
N1 N 0.7457(5) 0.3011(3) 0.7513(4)
C3 C 0.7491(6) 0.3437(3) 0.8110(4)
S3 S 0.74842(17) 0.41126(9) 0.79793(12)
N2 N 0.7512(5) 0.3150(2) 0.8866(3)
C4 C 0.7436(6) 0.3122(3) 0.6626(4)
H1 H 0.7675 0.3507 0.6525
H2 H 0.7876 0.2856 0.6353
C5 C 0.6416(6) 0.3062(4) 0.6267(5)
H3 H 0.6421 0.3142 0.5682
H4 H 0.6185 0.2677 0.6353
H5 H 0.5980 0.3326 0.6536
C6 C 0.7504(6) 0.3431(3) 0.9658(4)
H6 H 0.7879 0.3205 1.0063
H7 H 0.7827 0.3801 0.9614
C7 C 0.6480(6) 0.3515(4) 0.9953(5)
H8 H 0.6505 0.3700 1.0487
H9 H 0.6113 0.3749 0.9562
H10 H 0.6159 0.3149 1.0002
Pd1 Pd 0.75946(5) 0.63203(3) 0.64205(3)
Br1 Br 0.75922(7) 0.57544(4) 0.51908(5)
Br2 Br 0.75622(6) 0.55170(3) 0.73449(5)
S1 S 0.75888(16) 0.68760(8) 0.75686(12)
C1 C 0.7569(6) 0.7511(3) 0.7144(4)
C2 C 0.7544(6) 0.7603(3) 0.6251(4)
S2 S 0.75916(16) 0.70814(9) 0.55887(11)
N1 N 0.7543(5) 0.8011(3) 0.7487(4)
C3 C 0.7509(6) 0.8437(3) 0.6890(4)
S3 S 0.75158(17) 0.91126(9) 0.70207(12)
N2 N 0.7488(5) 0.8150(2) 0.6134(3)
C4 C 0.7564(6) 0.8122(3) 0.8374(4)
H1 H 0.7325 0.8507 0.8475
H2 H 0.7124 0.7856 0.8647
C5 C 0.8584(6) 0.8062(4) 0.8733(5)
H3 H 0.8579 0.8142 0.9318
H4 H 0.8815 0.7677 0.8647
H5 H 0.9020 0.8326 0.8464
C6 C 0.7496(6) 0.8431(3) 0.5342(4)
H6 H 0.7121 0.8205 0.4937
H7 H 0.7173 0.8801 0.5386
C7 C 0.8520(6) 0.8515(4) 0.5047(5)
H8 H 0.8495 0.8700 0.4513
H9 H 0.8887 0.8749 0.5438
H10 H 0.8841 0.8149 0.4998
Pd1 Pd 0.25946(5) 0.86797(3) 0.14205(3)
Br1 Br 0.25922(7) 0.92456(4) 0.01908(5)
Br2 Br 0.25622(6) 0.94830(3) 0.23449(5)
S1 S 0.25888(16) 0.81240(8) 0.25686(12)
C1 C 0.2569(6) 0.7489(3) 0.2144(4)
C2 C 0.2544(6) 0.7397(3) 0.1251(4)
S2 S 0.25916(16) 0.79186(9) 0.05887(11)
N1 N 0.2543(5) 0.6989(3) 0.2487(4)
C3 C 0.2509(6) 0.6563(3) 0.1890(4)
S3 S 0.25158(17) 0.58874(9) 0.20207(12)
N2 N 0.2488(5) 0.6850(2) 0.1134(3)
C4 C 0.2564(6) 0.6878(3) 0.3374(4)
H1 H 0.2325 0.6493 0.3475
H2 H 0.2124 0.7144 0.3647
C5 C 0.3584(6) 0.6938(4) 0.3733(5)
H3 H 0.3579 0.6858 0.4318
H4 H 0.3815 0.7323 0.3647
H5 H 0.4020 0.6674 0.3464
C6 C 0.2496(6) 0.6569(3) 0.0342(4)
H6 H 0.2121 0.6795 -0.0063
H7 H 0.2173 0.6199 0.0386
C7 C 0.3520(6) 0.6485(4) 0.0047(5)
H8 H 0.3495 0.6300 -0.0487
H9 H 0.3887 0.6251 0.0438
H10 H 0.3841 0.6851 -0.0002
Pd2 Pd 0.49073(5) 0.29758(3) 0.32248(4)
Br3 Br 0.49327(7) 0.24990(4) 0.45360(5)
Br4 Br 0.49626(7) 0.21013(4) 0.24808(5)
S4 S 0.48517(16) 0.34108(9) 0.19866(12)
C8 C 0.4879(6) 0.4068(3) 0.2255(4)
C9 C 0.4965(6) 0.4260(3) 0.3115(4)
S5 S 0.49193(16) 0.38237(9) 0.38906(12)
N3 N 0.4898(5) 0.4550(3) 0.1804(4)
C10 C 0.4980(6) 0.5014(3) 0.2298(4)
S6 S 0.50494(18) 0.56711(9) 0.19852(13)
N4 N 0.5020(5) 0.4834(3) 0.3093(3)
C11 C 0.4764(7) 0.4553(4) 0.0904(5)
H11 H 0.4949 0.4182 0.0684
H12 H 0.5198 0.4839 0.0667
C12 C 0.3698(6) 0.4683(4) 0.0654(5)
H13 H 0.3631 0.4687 0.0058
H14 H 0.3515 0.5050 0.0871
H15 H 0.3271 0.4394 0.0874
C13 C 0.5116(6) 0.5200(4) 0.3813(5)
H16 H 0.5547 0.5521 0.3690
H17 H 0.5413 0.4988 0.4274
C14 C 0.4122(6) 0.5415(4) 0.4045(5)
H18 H 0.4191 0.5660 0.4524
H19 H 0.3700 0.5097 0.4173
H20 H 0.3833 0.5628 0.3589
Pd2 Pd 0.99073(5) 0.20242(3) 0.82248(4)
Br3 Br 0.99327(7) 0.25010(4) 0.95360(5)
Br4 Br 0.99626(7) 0.28987(4) 0.74808(5)
S4 S 0.98517(16) 0.15892(9) 0.69866(12)
C8 C 0.9879(6) 0.0932(3) 0.7255(4)
C9 C 0.9965(6) 0.0740(3) 0.8115(4)
S5 S 0.99193(16) 0.11763(9) 0.88906(12)
N3 N 0.9898(5) 0.0450(3) 0.6804(4)
C10 C 0.9980(6) -0.0014(3) 0.7298(4)
S6 S 1.00494(18) -0.06711(9) 0.69852(13)
N4 N 1.0020(5) 0.0166(3) 0.8093(3)
C11 C 0.9764(7) 0.0447(4) 0.5904(5)
H11 H 0.9949 0.0818 0.5684
H12 H 1.0198 0.0161 0.5667
C12 C 0.8698(6) 0.0317(4) 0.5654(5)
H13 H 0.8631 0.0313 0.5058
H14 H 0.8515 -0.0050 0.5871
H15 H 0.8271 0.0606 0.5874
C13 C 1.0116(6) -0.0200(4) 0.8813(5)
H16 H 1.0547 -0.0521 0.8690
H17 H 1.0413 0.0012 0.9274
C14 C 0.9122(6) -0.0415(4) 0.9045(5)
H18 H 0.9191 -0.0660 0.9524
H19 H 0.8700 -0.0097 0.9173
H20 H 0.8833 -0.0628 0.8589
Pd2 Pd 0.50927(5) 0.70242(3) 0.67752(4)
Br3 Br 0.50673(7) 0.75010(4) 0.54640(5)
Br4 Br 0.50374(7) 0.78987(4) 0.75192(5)
S4 S 0.51483(16) 0.65892(9) 0.80134(12)
C8 C 0.5121(6) 0.5932(3) 0.7745(4)
C9 C 0.5035(6) 0.5740(3) 0.6885(4)
S5 S 0.50807(16) 0.61763(9) 0.61094(12)
N3 N 0.5102(5) 0.5450(3) 0.8196(4)
C10 C 0.5020(6) 0.4986(3) 0.7702(4)
S6 S 0.49506(18) 0.43289(9) 0.80148(13)
N4 N 0.4980(5) 0.5166(3) 0.6907(3)
C11 C 0.5236(7) 0.5447(4) 0.9096(5)
H11 H 0.5051 0.5818 0.9316
H12 H 0.4802 0.5161 0.9333
C12 C 0.6302(6) 0.5317(4) 0.9346(5)
H13 H 0.6369 0.5313 0.9942
H14 H 0.6485 0.4950 0.9129
H15 H 0.6729 0.5606 0.9126
C13 C 0.4884(6) 0.4800(4) 0.6187(5)
H16 H 0.4453 0.4479 0.6310
H17 H 0.4587 0.5012 0.5726
C14 C 0.5878(6) 0.4585(4) 0.5955(5)
H18 H 0.5809 0.4340 0.5476
H19 H 0.6300 0.4903 0.5827
H20 H 0.6167 0.4372 0.6411
Pd2 Pd 0.00927(5) 0.79758(3) 0.17752(4)
Br3 Br 0.00673(7) 0.74990(4) 0.04640(5)
Br4 Br 0.00374(7) 0.71013(4) 0.25192(5)
S4 S 0.01483(16) 0.84108(9) 0.30134(12)
C8 C 0.0121(6) 0.9068(3) 0.2745(4)
C9 C 0.0035(6) 0.9260(3) 0.1885(4)
S5 S 0.00807(16) 0.88237(9) 0.11094(12)
N3 N 0.0102(5) 0.9550(3) 0.3196(4)
C10 C 0.0020(6) 1.0014(3) 0.2702(4)
S6 S -0.00494(18) 1.06711(9) 0.30148(13)
N4 N -0.0020(5) 0.9834(3) 0.1907(3)
C11 C 0.0236(7) 0.9553(4) 0.4096(5)
H11 H 0.0051 0.9182 0.4316
H12 H -0.0198 0.9839 0.4333
C12 C 0.1302(6) 0.9683(4) 0.4346(5)
H13 H 0.1369 0.9687 0.4942
H14 H 0.1485 1.0050 0.4129
H15 H 0.1729 0.9394 0.4126
C13 C -0.0116(6) 1.0200(4) 0.1187(5)
H16 H -0.0547 1.0521 0.1310
H17 H -0.0413 0.9988 0.0726
C14 C 0.0878(6) 1.0415(4) 0.0955(5)
H18 H 0.0809 1.0660 0.0476
H19 H 0.1300 1.0097 0.0827
H20 H 0.1167 1.0628 0.1411
Pd3 Pd 0.24706(5) 0.12198(3) 0.78778(4)
Br5 Br 0.24487(7) 0.05635(4) 0.67315(5)
Br6 Br 0.24483(7) 0.04752(4) 0.88800(6)
S7 S 0.24596(16) 0.18306(9) 0.89468(12)
C15 C 0.2431(6) 0.2434(3) 0.8458(4)
C16 C 0.2525(6) 0.2498(3) 0.7582(4)
S8 S 0.25094(16) 0.19466(9) 0.69562(12)
N5 N 0.2408(5) 0.2971(3) 0.8747(4)
C17 C 0.2458(6) 0.3380(3) 0.8116(4)
S9 S 0.24542(18) 0.40374(10) 0.81978(14)
N6 N 0.2515(5) 0.3044(3) 0.7412(4)
C18 C 0.2346(6) 0.3131(3) 0.9627(4)
H21 H 0.2028 0.2825 0.9928
H22 H 0.1937 0.3471 0.9674
C19 C 0.3335(6) 0.3244(4) 1.0008(5)
H23 H 0.3263 0.3355 1.0579
H24 H 0.3653 0.3548 0.9711
H25 H 0.3734 0.2904 0.9982
C20 C 0.2588(6) 0.3288(3) 0.6586(4)
H26 H 0.2351 0.3681 0.6587
H27 H 0.2177 0.3071 0.6194
C21 C 0.3639(6) 0.3273(3) 0.6330(5)
H28 H 0.3687 0.3429 0.5779
H29 H 0.3871 0.2884 0.6334
H30 H 0.4039 0.3497 0.6712
Pd3 Pd 0.74706(5) 0.37802(3) 0.28778(4)
Br5 Br 0.74487(7) 0.44365(4) 0.17315(5)
Br6 Br 0.74483(7) 0.45248(4) 0.38800(6)
S7 S 0.74596(16) 0.31694(9) 0.39468(12)
C15 C 0.7431(6) 0.2566(3) 0.3458(4)
C16 C 0.7525(6) 0.2502(3) 0.2582(4)
S8 S 0.75094(16) 0.30534(9) 0.19562(12)
N5 N 0.7408(5) 0.2029(3) 0.3747(4)
C17 C 0.7458(6) 0.1620(3) 0.3116(4)
S9 S 0.74542(18) 0.09626(10) 0.31978(14)
N6 N 0.7515(5) 0.1956(3) 0.2412(4)
C18 C 0.7346(6) 0.1869(3) 0.4627(4)
H21 H 0.7028 0.2175 0.4928
H22 H 0.6937 0.1529 0.4674
C19 C 0.8335(6) 0.1756(4) 0.5008(5)
H23 H 0.8263 0.1645 0.5579
H24 H 0.8653 0.1452 0.4711
H25 H 0.8734 0.2096 0.4982
C20 C 0.7588(6) 0.1712(3) 0.1586(4)
H26 H 0.7351 0.1319 0.1587
H27 H 0.7177 0.1929 0.1194
C21 C 0.8639(6) 0.1727(3) 0.1330(5)
H28 H 0.8687 0.1571 0.0779
H29 H 0.8871 0.2116 0.1334
H30 H 0.9039 0.1503 0.1712
Pd3 Pd 0.75294(5) 0.87802(3) 0.21222(4)
Br5 Br 0.75513(7) 0.94365(4) 0.32685(5)
Br6 Br 0.75517(7) 0.95248(4) 0.11200(6)
S7 S 0.75404(16) 0.81694(9) 0.10532(12)
C15 C 0.7569(6) 0.7566(3) 0.1542(4)
C16 C 0.7475(6) 0.7502(3) 0.2418(4)
S8 S 0.74906(16) 0.80534(9) 0.30438(12)
N5 N 0.7592(5) 0.7029(3) 0.1253(4)
C17 C 0.7542(6) 0.6620(3) 0.1884(4)
S9 S 0.75458(18) 0.59626(10) 0.18022(14)
N6 N 0.7485(5) 0.6956(3) 0.2588(4)
C18 C 0.7654(6) 0.6869(3) 0.0373(4)
H21 H 0.7972 0.7175 0.0072
H22 H 0.8063 0.6529 0.0326
C19 C 0.6665(6) 0.6756(4) -0.0008(5)
H23 H 0.6737 0.6645 -0.0579
H24 H 0.6347 0.6452 0.0289
H25 H 0.6266 0.7096 0.0018
C20 C 0.7412(6) 0.6712(3) 0.3414(4)
H26 H 0.7649 0.6319 0.3413
H27 H 0.7823 0.6929 0.3806
C21 C 0.6361(6) 0.6727(3) 0.3670(5)
H28 H 0.6313 0.6571 0.4221
H29 H 0.6129 0.7116 0.3666
H30 H 0.5961 0.6503 0.3288
Pd3 Pd 0.25294(5) 0.62198(3) 0.71222(4)
Br5 Br 0.25513(7) 0.55635(4) 0.82685(5)
Br6 Br 0.25517(7) 0.54752(4) 0.61200(6)
S7 S 0.25404(16) 0.68306(9) 0.60532(12)
C15 C 0.2569(6) 0.7434(3) 0.6542(4)
C16 C 0.2475(6) 0.7498(3) 0.7418(4)
S8 S 0.24906(16) 0.69466(9) 0.80438(12)
N5 N 0.2592(5) 0.7971(3) 0.6253(4)
C17 C 0.2542(6) 0.8380(3) 0.6884(4)
S9 S 0.25458(18) 0.90374(10) 0.68022(14)
N6 N 0.2485(5) 0.8044(3) 0.7588(4)
C18 C 0.2654(6) 0.8131(3) 0.5373(4)
H21 H 0.2972 0.7825 0.5072
H22 H 0.3063 0.8471 0.5326
C19 C 0.1665(6) 0.8244(4) 0.4992(5)
H23 H 0.1737 0.8355 0.4421
H24 H 0.1347 0.8548 0.5289
H25 H 0.1266 0.7904 0.5018
C20 C 0.2412(6) 0.8288(3) 0.8414(4)
H26 H 0.2649 0.8681 0.8413
H27 H 0.2823 0.8071 0.8806
C21 C 0.1361(6) 0.8273(3) 0.8670(5)
H28 H 0.1313 0.8429 0.9221
H29 H 0.1129 0.7884 0.8666
H30 H 0.0961 0.8497 0.8288
Pd4 Pd 0.49914(5) 0.17753(3) 0.86927(4)
Br7 Br 0.50297(7) 0.19748(4) 1.01468(5)
Br8 Br 0.49753(6) 0.27602(3) 0.82744(5)
S10 S 0.49813(16) 0.15510(9) 0.73282(12)
C22 C 0.4975(6) 0.0851(3) 0.7373(5)
C23 C 0.4933(6) 0.0539(4) 0.8149(5)
S11 S 0.49772(16) 0.08529(9) 0.90573(12)
N7 N 0.4953(5) 0.0468(3) 0.6796(4)
C24 C 0.4942(6) -0.0062(3) 0.7115(5)
S12 S 0.49761(18) -0.06617(10) 0.66173(14)
N8 N 0.4893(5) 0.0003(3) 0.7959(4)
C25 C 0.4973(6) 0.0591(3) 0.5920(5)
H31 H 0.4635 0.0951 0.5807
H32 H 0.4626 0.0291 0.5612
C26 C 0.6048(6) 0.0629(4) 0.5637(5)
H33 H 0.6054 0.0706 0.5050
H34 H 0.6381 0.0272 0.5750
H35 H 0.6385 0.0932 0.5933
C27 C 0.4922(6) -0.0475(3) 0.8565(5)
H36 H 0.4480 -0.0388 0.9016
H37 H 0.4681 -0.0821 0.8293
C28 C 0.5910(6) -0.0580(4) 0.8908(5)
H38 H 0.5888 -0.0891 0.9297
H39 H 0.6150 -0.0242 0.9187
H40 H 0.6349 -0.0676 0.8466
Pd4 Pd -0.00086(5) 0.32247(3) 0.36927(4)
Br7 Br 0.00297(7) 0.30252(4) 0.51468(5)
Br8 Br -0.00247(6) 0.22398(3) 0.32744(5)
S10 S -0.00187(16) 0.34490(9) 0.23282(12)
C22 C -0.0025(6) 0.4149(3) 0.2373(5)
C23 C -0.0067(6) 0.4461(4) 0.3149(5)
S11 S -0.00228(16) 0.41471(9) 0.40573(12)
N7 N -0.0047(5) 0.4532(3) 0.1796(4)
C24 C -0.0058(6) 0.5062(3) 0.2115(5)
S12 S -0.00239(18) 0.56617(10) 0.16173(14)
N8 N -0.0107(5) 0.4997(3) 0.2959(4)
C25 C -0.0027(6) 0.4409(3) 0.0920(5)
H31 H -0.0365 0.4049 0.0807
H32 H -0.0374 0.4709 0.0612
C26 C 0.1048(6) 0.4371(4) 0.0637(5)
H33 H 0.1054 0.4294 0.0050
H34 H 0.1381 0.4728 0.0750
H35 H 0.1385 0.4068 0.0933
C27 C -0.0078(6) 0.5475(3) 0.3565(5)
H36 H -0.0520 0.5388 0.4016
H37 H -0.0319 0.5821 0.3293
C28 C 0.0910(6) 0.5580(4) 0.3908(5)
H38 H 0.0888 0.5891 0.4297
H39 H 0.1150 0.5242 0.4187
H40 H 0.1349 0.5676 0.3466
Pd4 Pd 0.50086(5) 0.82247(3) 0.13073(4)
Br7 Br 0.49703(7) 0.80252(4) -0.01468(5)
Br8 Br 0.50247(6) 0.72398(3) 0.17256(5)
S10 S 0.50187(16) 0.84490(9) 0.26718(12)
C22 C 0.5025(6) 0.9149(3) 0.2627(5)
C23 C 0.5067(6) 0.9461(4) 0.1851(5)
S11 S 0.50228(16) 0.91471(9) 0.09427(12)
N7 N 0.5047(5) 0.9532(3) 0.3204(4)
C24 C 0.5058(6) 1.0062(3) 0.2885(5)
S12 S 0.50239(18) 1.06617(10) 0.33827(14)
N8 N 0.5107(5) 0.9997(3) 0.2041(4)
C25 C 0.5027(6) 0.9409(3) 0.4080(5)
H31 H 0.5365 0.9049 0.4193
H32 H 0.5374 0.9709 0.4388
C26 C 0.3952(6) 0.9371(4) 0.4363(5)
H33 H 0.3946 0.9294 0.4950
H34 H 0.3619 0.9728 0.4250
H35 H 0.3615 0.9068 0.4067
C27 C 0.5078(6) 1.0475(3) 0.1435(5)
H36 H 0.5520 1.0388 0.0984
H37 H 0.5319 1.0821 0.1707
C28 C 0.4090(6) 1.0580(4) 0.1092(5)
H38 H 0.4112 1.0891 0.0703
H39 H 0.3850 1.0242 0.0813
H40 H 0.3651 1.0676 0.1534
Pd4 Pd 1.00086(5) 0.67753(3) 0.63073(4)
Br7 Br 0.99703(7) 0.69748(4) 0.48532(5)
Br8 Br 1.00247(6) 0.77602(3) 0.67256(5)
S10 S 1.00187(16) 0.65510(9) 0.76718(12)
C22 C 1.0025(6) 0.5851(3) 0.7627(5)
C23 C 1.0067(6) 0.5539(4) 0.6851(5)
S11 S 1.00228(16) 0.58529(9) 0.59427(12)
N7 N 1.0047(5) 0.5468(3) 0.8204(4)
C24 C 1.0058(6) 0.4938(3) 0.7885(5)
S12 S 1.00239(18) 0.43383(10) 0.83827(14)
N8 N 1.0107(5) 0.5003(3) 0.7041(4)
C25 C 1.0027(6) 0.5591(3) 0.9080(5)
H31 H 1.0365 0.5951 0.9193
H32 H 1.0374 0.5291 0.9388
C26 C 0.8952(6) 0.5629(4) 0.9363(5)
H33 H 0.8946 0.5706 0.9950
H34 H 0.8619 0.5272 0.9250
H35 H 0.8615 0.5932 0.9067
C27 C 1.0078(6) 0.4525(3) 0.6435(5)
H36 H 1.0520 0.4612 0.5984
H37 H 1.0319 0.4179 0.6707
C28 C 0.9090(6) 0.4420(4) 0.6092(5)
H38 H 0.9112 0.4109 0.5703
H39 H 0.8850 0.4758 0.5813
H40 H 0.8651 0.4324 0.6534

#END
