./LABQOU_from_POSCAR.cif_generated_by_CrystalShift
_symmetry_cell_setting triclinic
_symmetry_space_group_name_H-M 'P 1'
loop_
_symmetry_equiv_pos_site_id
_symmetry_equiv_pos_as_xyz
1 x,y,z
_cell_length_a 17.395000
_cell_length_b 7.419000
_cell_length_c 11.989000
_cell_angle_alpha 90.000000
_cell_angle_beta 98.800000
_cell_angle_gamma 90.000000
_cell_volume 1529.009159
loop_
_atom_site_label
_atom_site_type_symbol
_atom_site_fract_x
_atom_site_fract_y
_atom_site_fract_z
H1 H 0.980000 0.115000 1.257000
H2 H 1.063000 0.196000 1.262000
H3 H 0.649000 0.035000 0.907000
H4 H 0.483000 0.430000 0.609000
H5 H 0.483000 0.267000 0.528000
H6 H 0.456000 0.126000 0.682000
H7 H 0.507000 0.257000 0.762000
H8 H 0.917000 0.460000 0.981000
H9 H 0.925000 -0.056000 1.090000
H10 H 0.820000 -0.123000 0.954000
H11 H 0.837000 0.521000 0.794000
H12 H 0.766000 0.523000 0.857000
H13 H 0.778000 0.326000 0.663000
H14 H 0.718000 0.477000 0.673000
H15 H 0.664000 0.292000 0.800000
H16 H 0.694000 0.142000 0.525000
H17 H 0.616000 0.037000 0.502000
H18 H 0.720000 -0.160000 0.555000
H19 H 0.661000 -0.171000 0.639000
H20 H 0.782000 -0.157000 0.742000
H21 H 0.802000 0.014000 0.676000
H22 H 0.020000 0.615000 0.243000
H23 H 0.802000 0.486000 0.176000
H24 H 0.782000 0.657000 0.242000
H25 H 0.661000 0.671000 0.139000
H26 H 0.720000 0.660000 0.055000
H27 H 0.616000 0.463000 0.002000
H28 H 0.694000 0.358000 0.025000
H29 H 0.664000 0.208000 0.300000
H30 H 0.718000 0.023000 0.173000
H31 H 0.778000 0.174000 0.163000
H32 H 0.766000 -0.023000 0.357000
H33 H 0.837000 -0.021000 0.294000
H34 H 0.820000 0.623000 0.454000
H35 H 0.925000 0.556000 0.590000
H36 H 0.917000 0.040000 0.481000
H37 H 0.507000 0.243000 0.262000
H38 H 0.456000 0.374000 0.182000
H39 H 0.483000 0.233000 0.028000
H40 H 0.483000 0.070000 0.109000
H41 H 0.649000 0.465000 0.407000
H42 H 1.063000 0.304000 0.762000
H43 H 1.037000 0.465000 0.682000
H44 H 0.980000 0.385000 0.757000
H45 H -0.037000 0.535000 0.318000
H46 H -0.063000 0.696000 0.238000
H47 H 0.351000 0.535000 0.593000
H48 H 0.517000 0.930000 0.891000
H49 H 0.517000 0.767000 0.972000
H50 H 0.544000 0.626000 0.818000
H51 H 0.493000 0.757000 0.738000
H52 H 0.083000 0.960000 0.519000
H53 H 0.075000 0.444000 0.410000
H54 H 0.180000 0.377000 0.546000
H55 H 0.163000 1.021000 0.706000
H56 H 0.234000 1.023000 0.643000
H57 H 0.222000 0.826000 0.837000
H58 H 0.282000 0.977000 0.827000
H59 H 0.336000 0.792000 0.700000
H60 H 0.306000 0.642000 0.975000
H61 H 0.384000 0.537000 0.998000
H62 H 0.280000 0.340000 0.945000
H63 H 0.339000 0.329000 0.861000
H64 H 0.218000 0.343000 0.758000
H65 H 0.198000 0.514000 0.824000
H66 H 0.020000 0.885000 -0.257000
H67 H 0.198000 0.986000 0.324000
H68 H 0.218000 1.157000 0.258000
H69 H 0.339000 1.171000 0.361000
H70 H 0.280000 1.160000 0.445000
H71 H 0.384000 0.963000 0.498000
H72 H 0.306000 0.858000 0.475000
H73 H 0.336000 0.708000 0.200000
H74 H 0.282000 0.523000 0.327000
H75 H 0.222000 0.674000 0.337000
H76 H 0.234000 0.477000 0.143000
H77 H 0.163000 0.479000 0.206000
H78 H 0.180000 1.123000 0.046000
H79 H 0.075000 1.056000 -0.090000
H80 H 0.083000 0.540000 0.019000
H81 H 0.493000 0.743000 0.238000
H82 H 0.544000 0.874000 0.318000
H83 H 0.517000 0.733000 0.472000
H84 H 0.517000 0.570000 0.391000
H85 H 0.351000 0.965000 0.093000
H86 H -0.063000 0.804000 -0.262000
H87 H -0.037000 0.965000 -0.182000
H88 H 1.037000 0.035000 1.182000
C89 C 0.761780 0.548200 0.206700
C90 C 0.698100 0.596500 0.110600
C91 C 0.657700 0.428000 0.058200
C92 C 0.626290 0.315900 0.146300
C93 C 0.238220 0.451800 0.793300
C94 C 0.301900 0.403500 0.889400
C95 C 0.342300 0.572000 0.941800
C96 C 0.373710 0.684100 0.853700
C97 C 0.310580 0.739300 0.756200
C98 C 0.253700 0.879700 0.788700
C99 C 0.203200 0.949900 0.683400
C100 C 0.167170 0.802200 0.606300
C101 C 0.197560 0.626200 0.614500
C102 C 0.266400 0.571600 0.703100
C103 C 0.161120 0.496600 0.540300
C104 C 0.098040 0.535600 0.458900
C105 C 0.069540 0.710900 0.450400
C106 C 0.103680 0.840800 0.524500
C107 C 0.496600 0.693600 0.807000
C108 C 0.493100 0.818600 0.902800
C109 C 0.320480 0.467300 0.638000
C110 C -0.020700 0.642800 0.285800
C111 C 0.320480 1.032700 0.138000
C112 C 0.493100 0.681400 0.402800
C113 C 0.496600 0.806400 0.307000
C114 C 0.103680 0.659200 0.024500
C115 C 0.069540 0.789100 -0.049600
C116 C 0.098040 0.964400 -0.041100
C117 C 0.161120 1.003400 0.040300
C118 C 0.266400 0.928400 0.203100
C119 C 0.197560 0.873800 0.114500
C120 C 0.167170 0.697800 0.106300
C121 C 0.203200 0.550100 0.183400
C122 C 0.253700 0.620300 0.288700
C123 C 0.310580 0.760700 0.256200
C124 C 0.373710 0.815900 0.353700
C125 C 0.342300 0.928000 0.441800
C126 C 0.301900 1.096500 0.389400
C127 C 0.238220 1.048200 0.293300
C128 C 0.689420 0.260700 0.243800
C129 C 0.746300 0.120300 0.211300
C130 C 0.796800 0.050100 0.316600
C131 C 0.832830 0.197800 0.393700
C132 C 1.020700 0.357200 0.714200
C133 C 0.802440 0.373800 0.385500
C134 C 0.733600 0.428400 0.296900
C135 C 0.838880 0.503400 0.459700
C136 C 0.901960 0.464400 0.541100
C137 C 0.761780 -0.048200 0.706700
C138 C 0.698100 -0.096500 0.610600
C139 C 0.657700 0.072000 0.558200
C140 C 0.626290 0.184100 0.646300
C141 C 0.689420 0.239300 0.743800
C142 C 0.746300 0.379700 0.711300
C143 C 0.796800 0.449900 0.816600
C144 C 0.832830 0.302200 0.893700
C145 C 0.802440 0.126200 0.885500
C146 C 0.733600 0.071600 0.796900
C147 C 0.838880 -0.003400 0.959700
C148 C 0.901960 0.035600 1.041100
C149 C 0.930460 0.210900 1.049600
C150 C 0.896320 0.340800 0.975500
C151 C 0.503400 0.193600 0.693000
C152 C 0.506900 0.318600 0.597200
C153 C 0.679520 -0.032700 0.862000
C154 C 1.020700 0.142800 1.214200
C155 C 0.679520 0.532700 0.362000
C156 C 0.506900 0.181400 0.097200
C157 C 0.503400 0.306400 0.193000
C158 C 0.896320 0.159200 0.475500
C159 C 0.930460 0.289100 0.549600
C160 C -0.020700 0.857200 -0.214200
O161 O 0.672180 -0.193300 0.861100
O162 O 0.587920 0.341400 0.597600
O163 O 0.568650 0.080500 0.690800
O164 O 0.431350 0.919500 0.309200
O165 O 0.412080 0.658600 0.402400
O166 O 0.327820 1.193300 0.138900
O167 O 0.007750 0.734800 -0.126800
O168 O 0.007750 0.765200 0.373200
O169 O 0.327820 0.306700 0.638900
O170 O 0.412080 0.841400 0.902400
O171 O 0.431350 0.580500 0.809200
O172 O 0.992250 0.234800 0.626800
O173 O 0.672180 0.693300 0.361100
O174 O 0.587920 0.158600 0.097600
O175 O 0.992250 0.265200 1.126800
O176 O 0.568650 0.419500 0.190800

#END
