./LABTOX_from_POSCAR.cif_generated_by_CrystalShift
_symmetry_cell_setting triclinic
_symmetry_space_group_name_H-M 'P 1'
loop_
_symmetry_equiv_pos_site_id
_symmetry_equiv_pos_as_xyz
1 x,y,z
_cell_length_a 7.799000
_cell_length_b 9.872000
_cell_length_c 11.770000
_cell_angle_alpha 109.638000
_cell_angle_beta 100.339000
_cell_angle_gamma 97.756000
_cell_volume 820.767383
loop_
_atom_site_label
_atom_site_type_symbol
_atom_site_fract_x
_atom_site_fract_y
_atom_site_fract_z
H1 H 0.272000 0.949000 0.453000
H2 H 0.344000 0.829000 0.506000
H3 H -0.292000 0.930000 0.744000
H4 H -0.348000 1.170000 0.785000
H5 H -0.111000 1.374000 0.880000
H6 H 0.173000 1.341000 0.960000
H7 H 0.227000 1.107000 0.930000
H8 H 0.069000 0.844000 0.894000
H9 H -0.240000 0.723000 0.825000
H10 H -0.031000 0.855000 0.357000
H11 H -0.351000 0.604000 0.594000
H12 H -0.160000 0.480000 0.690000
H13 H 0.114000 0.557000 0.626000
H14 H 0.138000 0.621000 0.885000
H15 H 0.161000 0.466000 0.789000
H16 H 0.447000 0.594000 0.771000
H17 H 0.441000 0.631000 0.930000
H18 H 0.372000 0.857000 0.953000
H19 H 0.547000 0.853000 0.904000
H20 H 0.380000 0.795000 0.695000
H21 H 0.349000 0.953000 0.788000
H22 H 0.728000 0.051000 0.547000
H23 H 0.658000 0.010000 0.395000
H24 H 0.656000 0.171000 0.494000
H25 H 1.292000 0.070000 0.256000
H26 H 0.651000 0.047000 0.212000
H27 H 0.620000 0.205000 0.305000
H28 H 0.453000 0.147000 0.096000
H29 H 0.628000 0.143000 0.047000
H30 H 0.559000 0.369000 0.070000
H31 H 0.553000 0.406000 0.229000
H32 H 0.839000 0.534000 0.211000
H33 H 0.862000 0.379000 0.115000
H34 H 0.886000 0.443000 0.374000
H35 H 1.160000 0.520000 0.310000
H36 H 1.351000 0.396000 0.406000
H37 H 1.031000 0.145000 0.643000
H38 H 1.240000 0.277000 0.175000
H39 H 0.931000 0.156000 0.106000
H40 H 0.773000 -0.107000 0.070000
H41 H 0.827000 -0.341000 0.040000
H42 H 1.111000 -0.374000 0.120000
H43 H 1.348000 -0.170000 0.215000
H44 H 0.342000 0.990000 0.605000
C45 C 1.196100 -0.013800 0.212500
C46 C 1.226900 -0.154800 0.190400
C47 C 1.088800 -0.276900 0.127800
C48 C 0.872400 0.223200 0.279360
C49 C 0.673400 0.155400 0.231970
C50 C 0.584900 0.186300 0.119200
C51 C 0.614100 0.351400 0.148000
C52 C 0.127600 0.776800 0.720640
C53 C 0.326600 0.844600 0.768030
C54 C 0.415100 0.813700 0.880800
C55 C 0.385900 0.648600 0.852000
C56 C 0.187100 0.580200 0.813300
C57 C 0.086600 0.610400 0.702240
C58 C -0.111400 0.575700 0.693270
C59 C -0.228600 0.648800 0.623330
C60 C -0.140000 0.721800 0.552840
C61 C 0.038200 0.783000 0.598780
C62 C -0.040800 0.817300 0.419640
C63 C -0.189800 0.745000 0.440150
C64 C -0.158800 0.717300 0.765260
C65 C 0.006900 0.839100 0.813120
C66 C -0.026600 0.991700 0.829520
C67 C 0.110100 1.116000 0.893840
C68 C 0.081200 1.257000 0.914200
C69 C -0.088800 1.276900 0.872200
C70 C -0.226900 1.154800 0.809600
C71 C -0.196100 1.013800 0.787500
C72 C 0.279700 0.907700 0.521900
C73 C 0.918800 -0.257000 0.085800
C74 C 0.889900 -0.116000 0.106160
C75 C 1.026600 0.008300 0.170480
C76 C 0.993100 0.160900 0.186880
C77 C 1.158800 0.282700 0.234740
C78 C 1.189800 0.255000 0.559850
C79 C 1.040800 0.182700 0.580360
C80 C 0.961800 0.217000 0.401220
C81 C 1.140000 0.278200 0.447160
C82 C 1.228600 0.351200 0.376670
C83 C 1.111400 0.424300 0.306730
C84 C 0.913400 0.389600 0.297760
C85 C 0.812900 0.419800 0.186700
C86 C 0.720300 0.092300 0.478100
N87 N 0.098100 0.840590 0.516330
N88 N 0.901900 0.159410 0.483670
N89 N 1.361500 0.293900 0.640300
N90 N -0.361500 0.706100 0.359700
O91 O 1.487900 0.355100 0.610940
O92 O -0.380800 0.734590 0.264270
O93 O -0.487900 0.644900 0.389060
O94 O 1.380800 0.265410 0.735730

#END
