
#######################################################################
#
#                 Cambridge Crystallographic Data Centre
#                                CCDC 
#
#######################################################################
#
# If this CIF has been generated from an entry in the Cambridge 
# Structural Database, then it will include bibliographic, chemical, 
# crystal, experimental, refinement or atomic coordinate data resulting 
# from the CCDC's data processing and validation procedures.
#
#######################################################################

data_LABZET
_symmetry_cell_setting           monoclinic
_symmetry_space_group_name_H-M   'P 21/c'
_symmetry_Int_Tables_number      14
_space_group_name_Hall           '-P 2ybc'
loop_
_symmetry_equiv_pos_site_id
_symmetry_equiv_pos_as_xyz
1 x,y,z
2 -x,1/2+y,1/2-z
3 -x,-y,-z
4 x,1/2-y,1/2+z
_cell_length_a                   13.451(8)
_cell_length_b                   7.007(4)
_cell_length_c                   17.864(12)
_cell_angle_alpha                90
_cell_angle_beta                 117.26(4)
_cell_angle_gamma                90
_cell_volume                     1496.71
loop_
_atom_site_label
_atom_site_type_symbol
_atom_site_fract_x
_atom_site_fract_y
_atom_site_fract_z
N1 N 0.7483(2) 0.2063(4) 0.58690(18)
N2 N 1.0326(2) 0.1346(4) 0.82376(17)
O1 O 0.5638(2) -0.2573(4) 0.31902(17)
O2 O 0.56654(19) 0.3208(4) 0.45707(16)
C1 C 0.9739(3) 0.1536(5) 0.5993(2)
C2 C 0.9511(3) 0.1520(5) 0.6689(2)
C3 C 0.6012(3) -0.1554(6) 0.3820(2)
C4 C 1.0813(3) 0.1437(5) 0.6100(3)
C5 C 0.5576(3) 0.0342(5) 0.3816(2)
C6 C 1.1719(3) 0.1309(5) 0.6917(2)
C7 C 0.6023(3) 0.1463(5) 0.4492(2)
C8 C 0.4617(3) 0.3838(7) 0.3887(3)
C9 C 1.1542(3) 0.1278(5) 0.7602(2)
C10 C 1.0435(3) 0.1388(5) 0.7522(2)
C11 C 0.7026(3) 0.0832(5) 0.5269(2)
C12 C 0.9141(3) 0.1324(5) 0.8900(2)
C13 C 0.9280(3) 0.1401(5) 0.8155(2)
C14 C 0.7408(3) -0.1127(5) 0.5292(2)
C15 C 0.8104(3) 0.1363(5) 0.8856(3)
C16 C 0.6929(3) -0.2259(6) 0.4621(2)
C17 C 0.7141(3) 0.1515(5) 0.8070(3)
C18 C 0.7227(3) 0.1616(5) 0.7347(2)
C19 C 0.8301(3) 0.1563(5) 0.7364(2)
C20 C 0.8434(3) 0.1635(5) 0.6632(2)
H1 H 0.917(3) 0.156(5) 0.545(2)
H2 H 1.094(3) 0.136(5) 0.559(2)
H3 H 0.495(3) 0.070(5) 0.327(2)
H4 H 1.243(3) 0.125(5) 0.698(2)
H5 H 1.215(3) 0.116(5) 0.819(2)
H6 H 0.984(3) 0.123(6) 0.942(3)
H7 H 0.801(3) -0.154(5) 0.578(2)
H8 H 0.805(3) 0.121(6) 0.941(3)
H9 H 0.722(3) -0.360(4) 0.4650(19)
H10 H 0.643(3) 0.154(5) 0.804(2)
H11 H 0.662(3) 0.174(5) 0.680(2)
H12 H 0.468(3) 0.412(6) 0.336(3)
H13 H 0.404(4) 0.281(6) 0.378(3)
H14 H 0.441(3) 0.504(5) 0.409(2)
N1 N 0.2517(2) 0.7063(4) 0.91310(18)
N2 N -0.0326(2) 0.6346(4) 0.67624(17)
O1 O 0.4362(2) 0.2427(4) 1.18098(17)
O2 O 0.43346(19) 0.8208(4) 1.04293(16)
C1 C 0.0261(3) 0.6536(5) 0.9007(2)
C2 C 0.0489(3) 0.6520(5) 0.8311(2)
C3 C 0.3988(3) 0.3446(6) 1.1180(2)
C4 C -0.0813(3) 0.6437(5) 0.8900(3)
C5 C 0.4424(3) 0.5342(5) 1.1184(2)
C6 C -0.1719(3) 0.6309(5) 0.8083(2)
C7 C 0.3977(3) 0.6463(5) 1.0508(2)
C8 C 0.5383(3) 0.8838(7) 1.1113(3)
C9 C -0.1542(3) 0.6278(5) 0.7398(2)
C10 C -0.0435(3) 0.6388(5) 0.7478(2)
C11 C 0.2974(3) 0.5832(5) 0.9731(2)
C12 C 0.0859(3) 0.6324(5) 0.6100(2)
C13 C 0.0720(3) 0.6401(5) 0.6845(2)
C14 C 0.2592(3) 0.3873(5) 0.9708(2)
C15 C 0.1896(3) 0.6363(5) 0.6144(3)
C16 C 0.3071(3) 0.2741(6) 1.0379(2)
C17 C 0.2859(3) 0.6515(5) 0.6930(3)
C18 C 0.2773(3) 0.6616(5) 0.7653(2)
C19 C 0.1699(3) 0.6563(5) 0.7636(2)
C20 C 0.1566(3) 0.6635(5) 0.8368(2)
H1 H 0.083(3) 0.656(5) 0.955(2)
H2 H -0.094(3) 0.636(5) 0.941(2)
H3 H 0.505(3) 0.570(5) 1.173(2)
H4 H -0.243(3) 0.625(5) 0.802(2)
H5 H -0.215(3) 0.616(5) 0.681(2)
H6 H 0.016(3) 0.623(6) 0.558(3)
H7 H 0.199(3) 0.346(5) 0.922(2)
H8 H 0.195(3) 0.621(6) 0.559(3)
H9 H 0.278(3) 0.140(4) 1.0350(19)
H10 H 0.357(3) 0.654(5) 0.696(2)
H11 H 0.338(3) 0.674(5) 0.820(2)
H12 H 0.532(3) 0.912(6) 1.164(3)
H13 H 0.596(4) 0.781(6) 1.122(3)
H14 H 0.559(3) 1.004(5) 1.091(2)
N1 N 0.2517(2) 0.7937(4) 0.41310(18)
N2 N -0.0326(2) 0.8654(4) 0.17624(17)
O1 O 0.4362(2) 1.2573(4) 0.68098(17)
O2 O 0.43346(19) 0.6792(4) 0.54293(16)
C1 C 0.0261(3) 0.8464(5) 0.4007(2)
C2 C 0.0489(3) 0.8480(5) 0.3311(2)
C3 C 0.3988(3) 1.1554(6) 0.6180(2)
C4 C -0.0813(3) 0.8563(5) 0.3900(3)
C5 C 0.4424(3) 0.9658(5) 0.6184(2)
C6 C -0.1719(3) 0.8691(5) 0.3083(2)
C7 C 0.3977(3) 0.8537(5) 0.5508(2)
C8 C 0.5383(3) 0.6162(7) 0.6113(3)
C9 C -0.1542(3) 0.8722(5) 0.2398(2)
C10 C -0.0435(3) 0.8612(5) 0.2478(2)
C11 C 0.2974(3) 0.9168(5) 0.4731(2)
C12 C 0.0859(3) 0.8676(5) 0.1100(2)
C13 C 0.0720(3) 0.8599(5) 0.1845(2)
C14 C 0.2592(3) 1.1127(5) 0.4708(2)
C15 C 0.1896(3) 0.8637(5) 0.1144(3)
C16 C 0.3071(3) 1.2259(6) 0.5379(2)
C17 C 0.2859(3) 0.8485(5) 0.1930(3)
C18 C 0.2773(3) 0.8384(5) 0.2653(2)
C19 C 0.1699(3) 0.8437(5) 0.2636(2)
C20 C 0.1566(3) 0.8365(5) 0.3368(2)
H1 H 0.083(3) 0.844(5) 0.455(2)
H2 H -0.094(3) 0.864(5) 0.441(2)
H3 H 0.505(3) 0.930(5) 0.673(2)
H4 H -0.243(3) 0.875(5) 0.302(2)
H5 H -0.215(3) 0.884(5) 0.181(2)
H6 H 0.016(3) 0.877(6) 0.058(3)
H7 H 0.199(3) 1.154(5) 0.422(2)
H8 H 0.195(3) 0.879(6) 0.059(3)
H9 H 0.278(3) 1.360(4) 0.5350(19)
H10 H 0.357(3) 0.846(5) 0.196(2)
H11 H 0.338(3) 0.826(5) 0.320(2)
H12 H 0.532(3) 0.588(6) 0.664(3)
H13 H 0.596(4) 0.719(6) 0.622(3)
H14 H 0.559(3) 0.496(5) 0.591(2)
N1 N 0.7483(2) 0.2937(4) 0.08690(18)
N2 N 1.0326(2) 0.3654(4) 0.32376(17)
O1 O 0.5638(2) 0.7573(4) -0.18098(17)
O2 O 0.56654(19) 0.1792(4) -0.04293(16)
C1 C 0.9739(3) 0.3464(5) 0.0993(2)
C2 C 0.9511(3) 0.3480(5) 0.1689(2)
C3 C 0.6012(3) 0.6554(6) -0.1180(2)
C4 C 1.0813(3) 0.3563(5) 0.1100(3)
C5 C 0.5576(3) 0.4658(5) -0.1184(2)
C6 C 1.1719(3) 0.3691(5) 0.1917(2)
C7 C 0.6023(3) 0.3537(5) -0.0508(2)
C8 C 0.4617(3) 0.1162(7) -0.1113(3)
C9 C 1.1542(3) 0.3722(5) 0.2602(2)
C10 C 1.0435(3) 0.3612(5) 0.2522(2)
C11 C 0.7026(3) 0.4168(5) 0.0269(2)
C12 C 0.9141(3) 0.3676(5) 0.3900(2)
C13 C 0.9280(3) 0.3599(5) 0.3155(2)
C14 C 0.7408(3) 0.6127(5) 0.0292(2)
C15 C 0.8104(3) 0.3637(5) 0.3856(3)
C16 C 0.6929(3) 0.7259(6) -0.0379(2)
C17 C 0.7141(3) 0.3485(5) 0.3070(3)
C18 C 0.7227(3) 0.3384(5) 0.2347(2)
C19 C 0.8301(3) 0.3437(5) 0.2364(2)
C20 C 0.8434(3) 0.3365(5) 0.1632(2)
H1 H 0.917(3) 0.344(5) 0.045(2)
H2 H 1.094(3) 0.364(5) 0.059(2)
H3 H 0.495(3) 0.430(5) -0.173(2)
H4 H 1.243(3) 0.375(5) 0.198(2)
H5 H 1.215(3) 0.384(5) 0.319(2)
H6 H 0.984(3) 0.377(6) 0.442(3)
H7 H 0.801(3) 0.654(5) 0.078(2)
H8 H 0.805(3) 0.379(6) 0.441(3)
H9 H 0.722(3) 0.860(4) -0.0350(19)
H10 H 0.643(3) 0.346(5) 0.304(2)
H11 H 0.662(3) 0.326(5) 0.180(2)
H12 H 0.468(3) 0.088(6) -0.164(3)
H13 H 0.404(4) 0.219(6) -0.122(3)
H14 H 0.441(3) -0.004(5) -0.091(2)

#END
