./LACBOG_from_POSCAR.cif_generated_by_CrystalShift
_symmetry_cell_setting triclinic
_symmetry_space_group_name_H-M 'P 1'
loop_
_symmetry_equiv_pos_site_id
_symmetry_equiv_pos_as_xyz
1 x,y,z
_cell_length_a 4.938000
_cell_length_b 4.938000
_cell_length_c 36.907000
_cell_angle_alpha 90.000000
_cell_angle_beta 90.000000
_cell_angle_gamma 90.000000
_cell_volume 899.934531
loop_
_atom_site_label
_atom_site_type_symbol
_atom_site_fract_x
_atom_site_fract_y
_atom_site_fract_z
H1 H 0.937000 0.065000 0.227000
H2 H 0.880000 -0.217000 0.241000
H3 H 0.123000 0.216000 0.614000
H4 H 0.520000 -0.088000 0.272000
H5 H 0.540000 0.810000 0.536000
H6 H 0.356000 0.964000 0.417000
H7 H 0.467000 0.645000 0.697000
H8 H 0.913000 0.790000 0.411000
H9 H 0.684000 0.423000 0.711600
H10 H 0.199000 0.236000 0.375000
H11 H 0.405000 0.223000 0.663100
H12 H 0.784000 0.123000 0.364000
H13 H 0.190000 0.540000 0.286000
H14 H 0.355000 0.467000 0.447000
H15 H 0.826000 0.380000 0.063200
H16 H 0.374000 0.377000 0.119000
H17 H 0.409000 0.746000 0.085000
H18 H 0.595000 0.777000 0.163100
H19 H 0.316000 0.577000 0.211600
H20 H 0.533000 0.355000 0.197000
H21 H 0.460000 0.190000 0.036000
H22 H 0.877000 0.784000 0.114000
H23 H 0.764000 0.199000 0.125000
H24 H 0.210000 0.913000 0.161000
H25 H 0.036000 0.356000 0.167000
H26 H 1.088000 0.520000 0.022000
H27 H 1.217000 0.880000 -0.009000
H28 H 0.935000 0.937000 -0.023000
H29 H 0.591000 0.254000 0.585000
H30 H 0.577000 0.684000 0.461600
H31 H 0.626000 0.623000 0.619000
H32 H 0.777000 0.405000 0.413100
H33 H 0.174000 0.620000 0.563200
H34 H 0.746000 0.591000 0.335000
H35 H 0.790000 0.087000 0.661000
H36 H 0.377000 0.626000 0.369000
H37 H 0.964000 0.644000 0.667000
H38 H 0.380000 0.174000 0.313200
H39 H -0.088000 0.480000 0.522000
H40 H 0.236000 0.801000 0.625000
H41 H -0.217000 0.120000 0.491000
H42 H 0.065000 0.063000 0.477000
H43 H 0.620000 0.826000 0.813200
H44 H 0.623000 0.374000 0.869000
H45 H 0.254000 0.409000 0.835000
H46 H 0.223000 0.595000 0.913100
H47 H 0.423000 0.316000 0.961600
H48 H 0.645000 0.533000 0.947000
H49 H 0.810000 0.460000 0.786000
H50 H 0.216000 0.877000 0.864000
H51 H 0.801000 0.764000 0.875000
H52 H 0.087000 0.210000 0.911000
H53 H 0.644000 0.036000 0.917000
H54 H 0.480000 1.088000 0.772000
H55 H 0.120000 1.217000 0.741000
H56 H 0.063000 0.935000 0.727000
C57 C 0.262400 0.310000 0.527200
C58 C 0.663400 0.421500 0.341100
C59 C 0.344700 0.500200 0.557600
C60 C 0.499800 0.344700 0.307600
C61 C 0.421500 0.336600 0.591100
C62 C 0.690000 0.262400 0.277200
C63 C 0.484100 0.515400 0.623600
C64 C 0.484600 0.484100 0.373600
C65 C 0.564200 0.353300 0.656900
C66 C 0.646700 0.564200 0.406900
C67 C 0.624900 0.527400 0.689500
C68 C 0.527400 0.375100 0.939500
C69 C 0.353300 0.435800 0.906900
C70 C 0.515400 0.515900 0.873600
C71 C 0.336600 0.578500 0.841100
C72 C 0.500200 0.655300 0.807600
C73 C 0.310000 0.737600 0.777200
C74 C 0.375100 0.472600 0.189500
C75 C 0.435800 0.646700 0.156900
C76 C 0.515900 0.484600 0.123600
C77 C 0.578500 0.663400 0.091100
C78 C 0.655300 0.499800 0.057600
C79 C 0.472600 0.624900 0.439500
C80 C 0.737600 0.690000 0.027200
N81 N 0.025300 0.352600 0.512100
N82 N 0.974700 0.647400 0.012100
N83 N 1.061900 0.788100 -0.018900
N84 N 0.788100 -0.061900 0.231100
N85 N 0.647400 0.025300 0.262100
N86 N -0.061900 0.211900 0.481100
N87 N 0.352600 0.974700 0.762100
N88 N 0.211900 1.061900 0.731100
O89 O 0.416500 0.126700 0.516100
O90 O 0.850100 0.207000 0.348400
O91 O 0.346400 0.576100 0.296600
O92 O 0.332700 0.249300 0.383240
O93 O 0.576100 0.653600 0.546600
O94 O 0.800000 0.797100 0.397300
O95 O 0.719600 0.162700 0.932500
O96 O 0.873300 0.416500 0.266100
O97 O 0.207000 0.149900 0.598400
O98 O 0.249300 0.667300 0.633240
O99 O 0.200000 0.202900 0.897300
O100 O 0.667300 0.750700 0.883240
O101 O 0.149900 0.793000 0.848400
O102 O 0.653600 0.423900 0.796600
O103 O 0.126700 0.583500 0.766100
O104 O 0.797100 0.200000 0.647300
O105 O 0.837300 0.719600 0.682500
O106 O 0.162700 0.280400 0.182500
O107 O 0.202900 0.800000 0.147300
O108 O 0.750700 0.332700 0.133240
O109 O 0.793000 0.850100 0.098400
O110 O 0.423900 0.346400 0.046600
O111 O 0.583500 0.873300 0.016100
O112 O 0.280400 0.837300 0.432500

#END
