./LACDUP_from_POSCAR.cif_generated_by_CrystalShift
_symmetry_cell_setting triclinic
_symmetry_space_group_name_H-M 'P 1'
loop_
_symmetry_equiv_pos_site_id
_symmetry_equiv_pos_as_xyz
1 x,y,z
_cell_length_a 14.767000
_cell_length_b 6.378000
_cell_length_c 18.641000
_cell_angle_alpha 90.000000
_cell_angle_beta 107.690000
_cell_angle_gamma 90.000000
_cell_volume 1672.664290
loop_
_atom_site_label
_atom_site_type_symbol
_atom_site_fract_x
_atom_site_fract_y
_atom_site_fract_z
H1 H 0.258900 0.900900 0.732900
H2 H 0.941900 0.099900 0.280900
H3 H 0.690500 0.019900 0.504800
H4 H 0.452900 0.501900 0.092100
H5 H 0.777000 -0.232200 0.459100
H6 H 0.913300 -0.114300 0.044100
H7 H 0.553500 0.578700 0.091500
H8 H 0.343400 0.737900 0.124000
H9 H 0.358400 0.932200 0.078400
H10 H 1.034100 0.562300 0.130100
H11 H 0.275200 1.202700 0.123700
H12 H 1.138300 0.852500 0.154800
H13 H 0.267700 1.421200 0.222800
H14 H 1.232300 0.921200 0.277200
H15 H 0.361700 1.352500 0.345200
H16 H 1.224800 0.702700 0.376300
H17 H 0.465900 1.062300 0.369900
H18 H 0.586700 0.385700 0.455900
H19 H 1.141600 0.432200 0.421600
H20 H 1.156600 0.237900 0.376000
H21 H 0.609700 0.932600 0.139000
H22 H 0.521600 1.035500 0.080200
H23 H 0.946500 0.078700 0.408500
H24 H 1.047100 0.001900 0.407900
H25 H 1.038100 0.167600 0.467500
H26 H 0.558100 0.599900 0.219100
H27 H 0.890300 0.432600 0.361000
H28 H 0.978400 0.535500 0.419800
H29 H 0.956300 0.585500 0.333900
H30 H 0.543700 1.085500 0.166100
H31 H 0.190500 1.480100 1.004800
H32 H 0.277000 1.732200 0.959100
H33 H 0.300800 1.690400 0.842600
H34 H 0.758900 -0.400900 0.232900
H35 H 0.241100 1.400900 0.767100
H36 H 0.699200 -0.690400 0.157400
H37 H 0.043700 0.414500 0.666100
H38 H 0.723000 -0.732200 0.040900
H39 H 0.021600 0.464500 0.580200
H40 H 0.809500 -0.480100 -0.004800
H41 H 0.109700 0.567400 0.639000
H42 H -0.038100 0.832400 0.532500
H43 H -0.047100 0.998100 0.592100
H44 H 0.441900 0.400100 0.780900
H45 H 0.800800 -0.190400 0.342600
H46 H 0.053500 0.921300 0.591500
H47 H 0.741100 0.099100 0.267100
H48 H 0.413300 0.614300 0.544100
H49 H -0.156600 0.762100 0.624000
H50 H -0.141600 0.567800 0.578400
H51 H -0.224800 0.297300 0.623700
H52 H 0.534100 -0.062300 0.630100
H53 H -0.232300 0.078800 0.722800
H54 H 0.638300 -0.352500 0.654800
H55 H -0.138300 0.147500 0.845200
H56 H 0.732300 -0.421200 0.777200
H57 H -0.034100 0.437700 0.869900
H58 H 0.724800 -0.202700 0.876300
H59 H 0.086700 1.114300 0.955900
H60 H 0.058100 0.900100 0.719100
H61 H 0.641600 0.067800 0.921600
H62 H 0.656600 0.262100 0.876000
H63 H 0.309500 0.980100 0.495200
H64 H 0.223000 1.232200 0.540900
H65 H 0.446500 0.421300 0.908500
H66 H 0.547100 0.498100 0.907900
H67 H 0.538100 0.332400 0.967500
H68 H 0.199200 1.190400 0.657400
H69 H 0.390300 0.067400 0.861000
H70 H 0.478400 -0.035500 0.919800
H71 H 0.456300 -0.085500 0.833900
H72 H 0.461900 0.667600 0.032500
C73 C 0.412500 0.514500 0.646900
C74 C 0.323700 0.771200 0.660800
C75 C 0.270600 0.918500 0.685300
C76 C 0.474900 0.334500 0.659100
C77 C 0.234800 1.086600 0.640100
C78 C 0.454600 0.020900 0.869900
C79 C 0.249200 1.111300 0.570700
C80 C 0.511300 0.380200 0.916600
C81 C 0.299900 0.964300 0.543600
C82 C 0.516100 0.207200 0.861700
C83 C 0.335900 0.795500 0.589500
C84 C 0.513100 0.295200 0.598800
C85 C 0.729400 0.081500 0.314700
C86 C 0.618200 0.139600 0.874300
C87 C 0.676300 0.228800 0.339200
C88 C 0.587500 0.485500 0.353100
C89 C 0.525100 0.665500 0.340900
C90 C 0.626200 -0.001300 0.812000
C91 C -0.006500 0.726400 0.773700
C92 C -0.070100 0.543000 0.761100
C93 C -0.073900 0.409200 0.819700
C94 C 0.686000 -0.173200 0.825900
C95 C -0.134800 0.238000 0.804900
C96 C 0.690200 -0.302800 0.767400
C97 C -0.190200 0.197200 0.732600
C98 C 0.634800 -0.262000 0.695100
C99 C -0.186000 0.326800 0.674100
C100 C 0.573900 -0.090800 0.680300
C101 C -0.126200 0.498700 0.688000
C102 C -0.118200 0.639600 0.625700
C103 C 0.570100 0.043000 0.738900
C104 C 0.506500 0.226400 0.726300
C105 C -0.016100 0.707200 0.638300
C106 C -0.011300 0.880200 0.583400
C107 C 0.765200 -0.086600 0.359900
C108 C 0.750800 -0.111300 0.429300
C109 C 1.013100 0.204800 0.098800
C110 C 0.045400 0.520900 0.630100
C111 C 0.835900 -0.295500 0.089500
C112 C 0.799900 -0.464300 0.043600
C113 C 0.749200 -0.611300 0.070700
C114 C 0.025100 0.834500 0.840900
C115 C 0.087500 1.014500 0.853100
C116 C 0.176300 1.271200 0.839200
C117 C 0.229400 1.418500 0.814700
C118 C 0.734800 -0.586600 0.140100
C119 C 0.265200 1.586600 0.859900
C120 C 0.770600 -0.418500 0.185300
C121 C 0.250800 1.611300 0.929300
C122 C 0.823700 -0.271200 0.160800
C123 C 0.200100 1.464300 0.956400
C124 C 0.912500 -0.014500 0.146900
C125 C 0.164100 1.295500 0.910500
C126 C -0.013100 0.795200 0.901200
C127 C 0.974900 0.165500 0.159100
C128 C 0.954600 0.479100 0.369900
C129 C 1.011300 0.119800 0.416600
C130 C 1.016100 0.292800 0.361700
C131 C 0.545400 0.979100 0.130100
C132 C 1.118200 0.360400 0.374300
C133 C 0.493500 0.773600 0.273700
C134 C 0.429900 0.957000 0.261100
C135 C 0.426100 1.090800 0.319700
C136 C 1.126200 0.501300 0.312000
C137 C 0.365200 1.262000 0.304900
C138 C 1.186000 0.673200 0.325900
C139 C 0.309800 1.302800 0.232600
C140 C 1.190200 0.802800 0.267400
C141 C 0.314000 1.173200 0.174100
C142 C 1.134800 0.762000 0.195100
C143 C 0.373800 1.001300 0.188000
C144 C 0.381800 0.860400 0.125700
C145 C 1.073900 0.590800 0.180300
C146 C 1.070100 0.457000 0.238900
C147 C 0.483900 0.792800 0.138300
C148 C 0.488700 0.619800 0.083400
C149 C 1.006500 0.273600 0.226300
C150 C 0.700100 0.035700 0.456400
C151 C 0.486900 0.704800 0.401200
C152 C 0.664100 0.204500 0.410500
N153 N 0.627700 0.405800 0.304300
N154 N 0.459500 0.717200 0.452300
N155 N 0.519300 0.707100 0.214400
N156 N 0.109000 1.127300 0.918200
N157 N 0.127700 1.094200 0.804300
N158 N -0.040500 0.782800 0.952300
N159 N 0.019300 0.792900 0.714400
N160 N 0.391000 0.627300 0.581800
N161 N 0.372300 0.594200 0.695700
N162 N 0.540500 0.282800 0.547700
N163 N 0.480700 0.292900 0.785600
N164 N 0.891000 -0.127300 0.081800
N165 N 0.872300 -0.094200 0.195700
N166 N 1.040500 0.217200 0.047700
N167 N 0.609000 0.372700 0.418200
N168 N 0.980700 0.207100 0.285600

#END
