./LACDAV_from_POSCAR.cif_generated_by_CrystalShift
_symmetry_cell_setting triclinic
_symmetry_space_group_name_H-M 'P 1'
loop_
_symmetry_equiv_pos_site_id
_symmetry_equiv_pos_as_xyz
1 x,y,z
_cell_length_a 5.786000
_cell_length_b 9.157000
_cell_length_c 11.801000
_cell_angle_alpha 104.360000
_cell_angle_beta 95.180000
_cell_angle_gamma 104.400000
_cell_volume 578.935960
loop_
_atom_site_label
_atom_site_type_symbol
_atom_site_fract_x
_atom_site_fract_y
_atom_site_fract_z
H1 H 0.177800 0.701400 0.557900
H2 H 0.566300 0.379000 0.872900
H3 H 0.172000 0.843500 0.749000
H4 H 0.454500 1.045400 0.865600
H5 H 0.589200 1.046100 0.749900
H6 H -0.095000 0.351000 0.682000
H7 H 0.822200 0.298600 0.442100
H8 H 0.722900 0.110300 0.426300
H9 H 0.433700 0.621000 0.127100
H10 H 0.828000 0.156500 0.251000
H11 H 0.545500 -0.045400 0.134400
H12 H 0.410800 -0.046100 0.250100
H13 H 1.095000 0.649000 0.318000
H14 H 0.277100 0.889700 0.573700
C15 C 0.684700 0.200300 0.401300
C16 C 0.088800 0.344700 0.053800
C17 C 0.877000 0.731100 0.249000
C18 C 0.709100 0.569500 0.219600
C19 C 0.484700 0.534500 0.153400
C20 C 0.327200 0.385000 0.121600
C21 C 0.396700 0.267700 0.159100
C22 C 0.665700 0.169300 0.268000
C23 C 0.474000 0.019500 0.196600
C24 C 0.123000 0.268900 0.751000
C25 C 0.911200 0.655300 0.946200
C26 C 0.315300 0.799700 0.598700
C27 C 0.217400 0.550600 0.739600
C28 C 0.290900 0.430500 0.780400
C29 C 0.515300 0.465500 0.846600
C30 C 0.672800 0.615000 0.878400
C31 C 0.782600 0.449400 0.260400
C32 C 0.526000 0.980500 0.803400
C33 C 0.334300 0.830700 0.732000
C34 C 0.603300 0.732300 0.840900
N35 N 0.386300 0.698200 0.771500
N36 N 0.613700 0.301800 0.228500
N37 N -0.103400 0.310200 0.003100
N38 N 1.103400 0.689800 0.996900
O39 O 0.980300 0.467100 0.320300
O40 O 1.095500 0.752100 0.310100
O41 O -0.095500 0.247900 0.689900
O42 O 0.175000 0.163900 0.780900
O43 O 0.825000 0.836100 0.219100
O44 O 0.019700 0.532900 0.679700
S45 S 0.229300 0.075480 0.125680
S46 S 0.770700 0.924520 0.874320
I47 I 0.639970 0.776560 0.532570
I48 I 0.360030 0.223440 0.467430

#END
