
#######################################################################
#
#                 Cambridge Crystallographic Data Centre
#                                CCDC 
#
#######################################################################
#
# If this CIF has been generated from an entry in the Cambridge 
# Structural Database, then it will include bibliographic, chemical, 
# crystal, experimental, refinement or atomic coordinate data resulting 
# from the CCDC's data processing and validation procedures.
#
#######################################################################

data_LACGAA01
_symmetry_cell_setting           monoclinic
_symmetry_space_group_name_H-M   'P 21/n'
_symmetry_Int_Tables_number      14
_space_group_name_Hall           '-P 2yn'
loop_
_symmetry_equiv_pos_site_id
_symmetry_equiv_pos_as_xyz
1 x,y,z
2 1/2-x,1/2+y,1/2-z
3 -x,-y,-z
4 1/2+x,1/2-y,1/2+z
_cell_length_a                   8.8637(3)
_cell_length_b                   7.3260(2)
_cell_length_c                   23.3707(7)
_cell_angle_alpha                90
_cell_angle_beta                 98.550(3)
_cell_angle_gamma                90
_cell_volume                     1500.72
loop_
_atom_site_label
_atom_site_type_symbol
_atom_site_fract_x
_atom_site_fract_y
_atom_site_fract_z
Zn1 Zn 0.03687(4) 0.24598(5) 0.36361(2)
O1 O 0.1830(2) 0.4597(3) 0.36260(8)
H1 H 0.2758 0.4421 0.3574
H2 H 0.203 0.5273 0.3916
C1 C 0.1110(3) -0.0583(4) 0.29586(11)
C2 C -0.1535(4) 0.4817(5) 0.22347(14)
H3 H -0.1457 0.522 0.2629
H4 H -0.2591 0.4697 0.2073
H5 H -0.1055 0.5692 0.2015
C3 C -0.0766(3) 0.3025(4) 0.22158(12)
C4 C -0.0700(3) 0.1905(4) 0.17362(12)
H6 H -0.0995 0.2203 0.1343
C5 C 0.0078(3) 0.0337(4) 0.19262(10)
N1 N -0.0069(3) 0.2265(3) 0.26977(10)
N2 N 0.0460(2) 0.0602(3) 0.25258(8)
N3 N 0.1236(3) 0.0000(3) 0.34858(9)
H7 H 0.1601 -0.0976 0.3731
N4 N 0.1524(3) -0.2210(3) 0.27736(11)
H8 H 0.1383 -0.2362 0.2402
H9 H 0.1878 -0.304 0.3055
O2 O 0.0439(2) -0.1118(3) 0.16718(7)
C6 C -0.2066(3) 0.3116(4) 0.42788(11)
C7 C 0.3096(3) 0.1688(6) 0.50362(14)
H10 H 0.3212 0.1252 0.4658
H11 H 0.3424 0.0761 0.5318
H12 H 0.3704 0.2764 0.5123
C8 C 0.1460(3) 0.2131(4) 0.50520(12)
C9 C 0.0691(3) 0.2288(4) 0.55266(12)
H13 H 0.105 0.2147 0.5936
C10 C -0.0824(3) 0.2682(4) 0.53147(11)
N5 N 0.0541(2) 0.2427(3) 0.45575(10)
N6 N -0.0869(2) 0.2763(3) 0.47185(9)
N7 N -0.1755(3) 0.3116(4) 0.37564(9)
H14 H -0.2625 0.3446 0.3481
N8 N -0.3423(3) 0.3420(4) 0.44422(10)
H15 H -0.4202 0.3473 0.4147
H16 H -0.3559 0.3226 0.4804
O3 O -0.2019(2) 0.2934(3) 0.55558(8)
Zn1 Zn 0.46313(4) 0.74598(5) 0.13639(2)
O1 O 0.3170(2) 0.9597(3) 0.13740(8)
H1 H 0.2242 0.9421 0.1426
H2 H 0.297 1.0273 0.1084
C1 C 0.3890(3) 0.4417(4) 0.20414(11)
C2 C 0.6535(4) 0.9817(5) 0.27653(14)
H3 H 0.6457 1.022 0.2371
H4 H 0.7591 0.9697 0.2927
H5 H 0.6055 1.0692 0.2985
C3 C 0.5766(3) 0.8025(4) 0.27842(12)
C4 C 0.5700(3) 0.6905(4) 0.32638(12)
H6 H 0.5995 0.7203 0.3657
C5 C 0.4922(3) 0.5337(4) 0.30738(10)
N1 N 0.5069(3) 0.7265(3) 0.23023(10)
N2 N 0.4540(2) 0.5602(3) 0.24742(8)
N3 N 0.3764(3) 0.5000(3) 0.15142(9)
H7 H 0.3399 0.4024 0.1269
N4 N 0.3476(3) 0.2790(3) 0.22264(11)
H8 H 0.3617 0.2638 0.2598
H9 H 0.3122 0.196 0.1945
O2 O 0.4561(2) 0.3882(3) 0.33282(7)
C6 C 0.7066(3) 0.8116(4) 0.07212(11)
C7 C 0.1904(3) 0.6688(6) -0.00362(14)
H10 H 0.1788 0.6252 0.0342
H11 H 0.1576 0.5761 -0.0318
H12 H 0.1296 0.7764 -0.0123
C8 C 0.3540(3) 0.7131(4) -0.00520(12)
C9 C 0.4309(3) 0.7288(4) -0.05266(12)
H13 H 0.395 0.7147 -0.0936
C10 C 0.5824(3) 0.7682(4) -0.03147(11)
N5 N 0.4459(2) 0.7427(3) 0.04425(10)
N6 N 0.5869(2) 0.7763(3) 0.02815(9)
N7 N 0.6755(3) 0.8116(4) 0.12436(9)
H14 H 0.7625 0.8446 0.1519
N8 N 0.8423(3) 0.8420(4) 0.05578(10)
H15 H 0.9202 0.8473 0.0853
H16 H 0.8559 0.8226 0.0196
O3 O 0.7019(2) 0.7934(3) -0.05558(8)
Zn1 Zn 0.96313(4) 0.75402(5) 0.63639(2)
O1 O 0.8170(2) 0.5403(3) 0.63740(8)
H1 H 0.7242 0.5579 0.6426
H2 H 0.797 0.4727 0.6084
C1 C 0.8890(3) 1.0583(4) 0.70414(11)
C2 C 1.1535(4) 0.5183(5) 0.77653(14)
H3 H 1.1457 0.478 0.7371
H4 H 1.2591 0.5303 0.7927
H5 H 1.1055 0.4308 0.7985
C3 C 1.0766(3) 0.6975(4) 0.77842(12)
C4 C 1.0700(3) 0.8095(4) 0.82638(12)
H6 H 1.0995 0.7797 0.8657
C5 C 0.9922(3) 0.9663(4) 0.80738(10)
N1 N 1.0069(3) 0.7735(3) 0.73023(10)
N2 N 0.9540(2) 0.9398(3) 0.74742(8)
N3 N 0.8764(3) 1.0000(3) 0.65142(9)
H7 H 0.8399 1.0976 0.6269
N4 N 0.8476(3) 1.2210(3) 0.72264(11)
H8 H 0.8617 1.2362 0.7598
H9 H 0.8122 1.304 0.6945
O2 O 0.9561(2) 1.1118(3) 0.83282(7)
C6 C 1.2066(3) 0.6884(4) 0.57212(11)
C7 C 0.6904(3) 0.8312(6) 0.49638(14)
H10 H 0.6788 0.8748 0.5342
H11 H 0.6576 0.9239 0.4682
H12 H 0.6296 0.7236 0.4877
C8 C 0.8540(3) 0.7869(4) 0.49480(12)
C9 C 0.9309(3) 0.7712(4) 0.44734(12)
H13 H 0.895 0.7853 0.4064
C10 C 1.0824(3) 0.7318(4) 0.46853(11)
N5 N 0.9459(2) 0.7573(3) 0.54425(10)
N6 N 1.0869(2) 0.7237(3) 0.52815(9)
N7 N 1.1755(3) 0.6884(4) 0.62436(9)
H14 H 1.2625 0.6554 0.6519
N8 N 1.3423(3) 0.6580(4) 0.55578(10)
H15 H 1.4202 0.6527 0.5853
H16 H 1.3559 0.6774 0.5196
O3 O 1.2019(2) 0.7066(3) 0.44442(8)
Zn1 Zn 0.53687(4) 0.25402(5) 0.86361(2)
O1 O 0.6830(2) 0.0403(3) 0.86260(8)
H1 H 0.7758 0.0579 0.8574
H2 H 0.703 -0.0273 0.8916
C1 C 0.6110(3) 0.5583(4) 0.79586(11)
C2 C 0.3465(4) 0.0183(5) 0.72347(14)
H3 H 0.3543 -0.022 0.7629
H4 H 0.2409 0.0303 0.7073
H5 H 0.3945 -0.0692 0.7015
C3 C 0.4234(3) 0.1975(4) 0.72158(12)
C4 C 0.4300(3) 0.3095(4) 0.67362(12)
H6 H 0.4005 0.2797 0.6343
C5 C 0.5078(3) 0.4663(4) 0.69262(10)
N1 N 0.4931(3) 0.2735(3) 0.76977(10)
N2 N 0.5460(2) 0.4398(3) 0.75258(8)
N3 N 0.6236(3) 0.5000(3) 0.84858(9)
H7 H 0.6601 0.5976 0.8731
N4 N 0.6524(3) 0.7210(3) 0.77736(11)
H8 H 0.6383 0.7362 0.7402
H9 H 0.6878 0.804 0.8055
O2 O 0.5439(2) 0.6118(3) 0.66718(7)
C6 C 0.2934(3) 0.1884(4) 0.92788(11)
C7 C 0.8096(3) 0.3312(6) 1.00362(14)
H10 H 0.8212 0.3748 0.9658
H11 H 0.8424 0.4239 1.0318
H12 H 0.8704 0.2236 1.0123
C8 C 0.6460(3) 0.2869(4) 1.00520(12)
C9 C 0.5691(3) 0.2712(4) 1.05266(12)
H13 H 0.605 0.2853 1.0936
C10 C 0.4176(3) 0.2318(4) 1.03147(11)
N5 N 0.5541(2) 0.2573(3) 0.95575(10)
N6 N 0.4131(2) 0.2237(3) 0.97185(9)
N7 N 0.3245(3) 0.1884(4) 0.87564(9)
H14 H 0.2375 0.1554 0.8481
N8 N 0.1577(3) 0.1580(4) 0.94422(10)
H15 H 0.0798 0.1527 0.9147
H16 H 0.1441 0.1774 0.9804
O3 O 0.2981(2) 0.2066(3) 1.05558(8)

#END
