
#######################################################################
#
#                 Cambridge Crystallographic Data Centre
#                                CCDC 
#
#######################################################################
#
# If this CIF has been generated from an entry in the Cambridge 
# Structural Database, then it will include bibliographic, chemical, 
# crystal, experimental, refinement or atomic coordinate data resulting 
# from the CCDC's data processing and validation procedures.
#
#######################################################################

data_LACKEI
_symmetry_cell_setting           triclinic
_symmetry_space_group_name_H-M   'P -1'
_symmetry_Int_Tables_number      2
_space_group_name_Hall           '-P 1'
loop_
_symmetry_equiv_pos_site_id
_symmetry_equiv_pos_as_xyz
1 x,y,z
2 -x,-y,-z
_cell_length_a                   7.5130(10)
_cell_length_b                   9.0930(10)
_cell_length_c                   9.6680(10)
_cell_angle_alpha                70.069(8)
_cell_angle_beta                 75.120(8)
_cell_angle_gamma                72.377(8)
_cell_volume                     583.017
loop_
_atom_site_label
_atom_site_type_symbol
_atom_site_fract_x
_atom_site_fract_y
_atom_site_fract_z
C1 C 0.3955(8) 0.6208(7) 0.3438(4)
C2 C 0.5680(8) 0.5494(5) 0.2771(6)
C3 C 0.6679(6) 0.6476(5) 0.2089(5)
C4 C 0.5732(4) 0.8172(4) 0.2113(3)
C5 C 0.3849(5) 0.8021(5) 0.3107(5)
O1 O 0.2686(6) 0.5548(5) 0.4124(4)
C6 C 0.8525(4) 1.0467(3) 0.2682(3)
C7 C 0.7642(4) 1.0178(3) 0.1752(3)
N1 N 0.7544(3) 1.0998(3) 0.0315(2)
C8 C 0.8437(4) 1.2169(4) -0.0106(3)
N2 N 0.9326(3) 1.2609(3) 0.0658(3)
C9 C 0.9385(4) 1.1766(3) 0.2098(3)
N3 N 0.8366(4) 0.9339(3) 0.4082(3)
C10 C 0.7388(5) 0.8461(4) 0.3954(4)
N4 N 0.6872(4) 0.8887(3) 0.2592(3)
N5 N 1.0219(4) 1.2204(3) 0.2910(3)
C11 C 1.1237(5) 1.3462(4) 0.2316(4)
C12 C 1.3286(6) 1.2883(6) 0.1838(5)
H1 H 0.2957(68) 0.8625(58) 0.2682(53)
H2 H 0.3852(64) 0.8174(57) 0.3908(56)
H3 H 0.6066(23) 0.4362(20) 0.2841(18)
H4 H 0.7876(72) 0.6191(62) 0.1472(54)
H5 H 0.5566(38) 0.8874(36) 0.1122(36)
H6 H 0.8436(40) 1.2861(39) -0.1080(39)
H7 H 0.6917(62) 0.7781(59) 0.4679(53)
H8 H 1.0255(46) 1.1626(45) 0.3828(43)
H9 H 1.1114(53) 1.3874(49) 0.3067(48)
H10 H 1.0757(43) 1.4143(42) 0.1465(39)
H11 H 1.3749(65) 1.3697(62) 0.1404(52)
H12 H 1.3404(67) 1.2418(64) 0.1153(59)
H13 H 1.3927(49) 1.2077(45) 0.2654(42)
C1 C 0.6045(8) 0.3792(7) 0.6562(4)
C2 C 0.4320(8) 0.4506(5) 0.7229(6)
C3 C 0.3321(6) 0.3524(5) 0.7911(5)
C4 C 0.4268(4) 0.1828(4) 0.7887(3)
C5 C 0.6151(5) 0.1979(5) 0.6893(5)
O1 O 0.7314(6) 0.4452(5) 0.5876(4)
C6 C 0.1475(4) -0.0467(3) 0.7318(3)
C7 C 0.2358(4) -0.0178(3) 0.8248(3)
N1 N 0.2456(3) -0.0998(3) 0.9685(2)
C8 C 0.1563(4) -0.2169(4) 1.0106(3)
N2 N 0.0674(3) -0.2609(3) 0.9342(3)
C9 C 0.0615(4) -0.1766(3) 0.7902(3)
N3 N 0.1634(4) 0.0661(3) 0.5918(3)
C10 C 0.2612(5) 0.1539(4) 0.6046(4)
N4 N 0.3128(4) 0.1113(3) 0.7408(3)
N5 N -0.0219(4) -0.2204(3) 0.7090(3)
C11 C -0.1237(5) -0.3462(4) 0.7684(4)
C12 C -0.3286(6) -0.2883(6) 0.8162(5)
H1 H 0.7043(68) 0.1375(58) 0.7318(53)
H2 H 0.6148(64) 0.1826(57) 0.6092(56)
H3 H 0.3934(23) 0.5638(20) 0.7159(18)
H4 H 0.2124(72) 0.3809(62) 0.8528(54)
H5 H 0.4434(38) 0.1126(36) 0.8878(36)
H6 H 0.1564(40) -0.2861(39) 1.1080(39)
H7 H 0.3083(62) 0.2219(59) 0.5321(53)
H8 H -0.0255(46) -0.1626(45) 0.6172(43)
H9 H -0.1114(53) -0.3874(49) 0.6933(48)
H10 H -0.0757(43) -0.4143(42) 0.8535(39)
H11 H -0.3749(65) -0.3697(62) 0.8596(52)
H12 H -0.3404(67) -0.2418(64) 0.8847(59)
H13 H -0.3927(49) -0.2077(45) 0.7346(42)

#END
