
#######################################################################
#
#                 Cambridge Crystallographic Data Centre
#                                CCDC 
#
#######################################################################
#
# If this CIF has been generated from an entry in the Cambridge 
# Structural Database, then it will include bibliographic, chemical, 
# crystal, experimental, refinement or atomic coordinate data resulting 
# from the CCDC's data processing and validation procedures.
#
#######################################################################

data_LACLOQ
_symmetry_cell_setting           monoclinic
_symmetry_space_group_name_H-M   'P 21'
_symmetry_Int_Tables_number      4
_space_group_name_Hall           'P 2yb'
loop_
_symmetry_equiv_pos_site_id
_symmetry_equiv_pos_as_xyz
1 x,y,z
2 -x,1/2+y,-z
_cell_length_a                   9.897(2)
_cell_length_b                   6.164(3)
_cell_length_c                   12.086(2)
_cell_angle_alpha                90
_cell_angle_beta                 94.73(1)
_cell_angle_gamma                90
_cell_volume                     734.797
loop_
_atom_site_label
_atom_site_type_symbol
_atom_site_fract_x
_atom_site_fract_y
_atom_site_fract_z
S1 S 0.78545(7) 0.212(2) 0.57476(5)
O1 O 0.9732(2) 0.063(2) 0.8589(1)
O2 O 0.8474(2) 0.350(2) 0.8054(1)
C11 C 0.8773(2) 0.077(2) 0.6760(1)
C12 C 0.9354(1) -0.153(2) 0.6450(1)
C13 C 0.8747(2) -0.159(2) 0.5217(2)
C14 C 0.8024(3) 0.012(2) 0.4840(2)
C15 C 0.9010(2) 0.168(2) 0.7883(1)
H10 H 0.8892 -0.2715 0.4747
H11 H 0.7634 0.0238 0.4105
H16 H 0.9921 -0.2519 0.6888
S1 S 0.21455(7) 0.712(2) 0.42524(5)
O1 O 0.0268(2) 0.563(2) 0.1411(1)
O2 O 0.1526(2) 0.850(2) 0.1946(1)
C11 C 0.1227(2) 0.577(2) 0.3240(1)
C12 C 0.0646(1) 0.347(2) 0.3550(1)
C13 C 0.1253(2) 0.341(2) 0.4783(2)
C14 C 0.1976(3) 0.512(2) 0.5160(2)
C15 C 0.0990(2) 0.668(2) 0.2117(1)
H10 H 0.1108 0.2285 0.5253
H11 H 0.2366 0.5238 0.5895
H16 H 0.0079 0.2481 0.3112
N1 N 0.5617(2) 0.462(2) 0.7936(2)
N2 N 0.1248(2) 0.189(2) 1.0488(1)
C1 C 0.4820(2) 0.369(2) 0.8678(2)
C2 C 0.3651(2) 0.491(2) 0.8736(2)
C3 C 0.3750(2) 0.667(2) 0.7981(1)
C4 C 0.2919(2) 0.844(2) 0.7670(2)
C5 C 0.3337(3) 0.986(2) 0.6899(2)
C6 C 0.4534(3) 0.957(2) 0.6414(2)
C7 C 0.5391(3) 0.787(2) 0.6698(2)
C8 C 0.4997(2) 0.642(2) 0.7500(2)
C9 C 0.2436(2) 0.444(2) 0.9344(2)
C10 C 0.2588(2) 0.248(2) 1.0074(2)
H1 H 0.5037 0.2463 0.9082
H2 H 0.2083 0.8698 0.7989
H3 H 0.2789 1.1157 0.6700
H4 H 0.4775 1.0606 0.5851
H5 H 0.6213 0.7787 0.6367
H6 H 0.1685 0.4292 0.8810
H7 H 0.2267 0.5726 0.9792
H8 H 0.2896 0.1362 0.9653
H9 H 0.3222 0.2836 1.0681
H12 H 0.644(4) 0.395(6) 0.786(3)
H13 H 0.129(4) 0.122(7) 1.110(3)
H14 H 0.107(4) 0.308(7) 1.105(3)
H15 H 0.045(4) 0.166(6) 0.996(3)
N1 N 0.4383(2) -0.038(2) 0.2064(2)
N2 N 0.8752(2) -0.311(2) -0.0488(1)
C1 C 0.5180(2) -0.131(2) 0.1322(2)
C2 C 0.6349(2) -0.009(2) 0.1264(2)
C3 C 0.6250(2) 0.167(2) 0.2019(1)
C4 C 0.7081(2) 0.344(2) 0.2330(2)
C5 C 0.6663(3) 0.486(2) 0.3101(2)
C6 C 0.5466(3) 0.457(2) 0.3586(2)
C7 C 0.4609(3) 0.287(2) 0.3302(2)
C8 C 0.5003(2) 0.142(2) 0.2500(2)
C9 C 0.7564(2) -0.056(2) 0.0656(2)
C10 C 0.7412(2) -0.252(2) -0.0074(2)
H1 H 0.4963 -0.2537 0.0918
H2 H 0.7917 0.3698 0.2011
H3 H 0.7211 0.6157 0.3300
H4 H 0.5225 0.5606 0.4149
H5 H 0.3787 0.2787 0.3633
H6 H 0.8315 -0.0708 0.1190
H7 H 0.7733 0.0726 0.0208
H8 H 0.7104 -0.3638 0.0347
H9 H 0.6778 -0.2164 -0.0681
H12 H 0.356(4) -0.105(6) 0.214(3)
H13 H 0.871(4) -0.378(7) -0.110(3)
H14 H 0.893(4) -0.192(7) -0.105(3)
H15 H 0.955(4) -0.334(6) 0.004(3)

#END
