./LACTER_from_POSCAR.cif_generated_by_CrystalShift
_symmetry_cell_setting triclinic
_symmetry_space_group_name_H-M 'P 1'
loop_
_symmetry_equiv_pos_site_id
_symmetry_equiv_pos_as_xyz
1 x,y,z
_cell_length_a 14.279000
_cell_length_b 32.266000
_cell_length_c 3.832900
_cell_angle_alpha 90.000000
_cell_angle_beta 90.000000
_cell_angle_gamma 90.000000
_cell_volume 1765.917506
loop_
_atom_site_label
_atom_site_type_symbol
_atom_site_fract_x
_atom_site_fract_y
_atom_site_fract_z
H1 H 0.463200 0.680600 0.347700
H2 H 0.854700 0.302100 0.133500
H3 H 0.328400 0.713700 0.180900
H4 H 0.463200 0.819400 0.347700
H5 H 0.933000 0.409200 0.563900
H6 H 0.328400 0.786300 0.180900
H7 H 0.036800 0.319400 0.847700
H8 H 0.768400 0.476000 0.773500
H9 H 0.171600 0.286300 0.680900
H10 H 0.608200 0.499600 0.795400
H11 H 0.529900 0.472500 0.677900
H12 H 0.036800 0.180600 0.847700
H13 H 0.662000 0.355200 0.264700
H14 H 0.171600 0.213700 0.680900
H15 H 0.536800 0.180600 0.652300
H16 H 0.555600 0.404900 0.427800
H17 H 0.671600 0.213700 0.819100
H18 H 0.536800 0.319400 0.652300
H19 H 0.671600 0.286300 0.819100
H20 H 0.645300 0.697900 0.633500
H21 H 0.963200 0.819400 0.152300
H22 H 0.828400 0.786300 0.319100
H23 H 0.567000 0.590800 1.063900
H24 H 0.963200 0.680600 0.152300
H25 H 0.828400 0.713700 0.319100
H26 H 0.731600 0.524000 1.273500
H27 H 0.944400 0.904900 0.927800
H28 H 0.891800 0.500400 1.295400
H29 H 0.970100 0.527500 1.177900
H30 H 0.838000 0.855200 0.764700
H31 H 0.838000 0.644800 0.764700
H32 H 0.970100 0.972500 1.177900
H33 H 0.891800 0.999600 1.295400
H34 H 0.944400 0.595100 0.927800
H35 H 0.731600 0.976000 1.273500
H36 H 0.567000 0.909200 1.063900
H37 H 0.645300 0.802100 0.633500
H38 H 0.145300 0.802100 0.866500
H39 H 0.555600 0.095100 0.427800
H40 H 0.662000 0.144800 0.264700
H41 H 0.067000 0.909200 0.436100
H42 H 0.529900 0.027500 0.677900
H43 H 0.608200 0.000400 0.795400
H44 H 0.231600 0.976000 0.226500
H45 H 0.768400 0.024000 0.773500
H46 H 0.391800 0.999600 0.204600
H47 H 0.470100 0.972500 0.322100
H48 H 0.933000 0.090800 0.563900
H49 H 0.338000 0.855200 0.735300
H50 H 0.854700 0.197900 0.133500
H51 H 0.055600 0.404900 0.072200
H52 H 0.444400 0.904900 0.572200
H53 H 0.162000 0.355200 0.235300
H54 H 0.029900 0.472500 -0.177900
H55 H 0.108200 0.499600 -0.295400
H56 H 0.354700 0.197900 0.366500
H57 H 0.268400 0.476000 -0.273500
H58 H 0.433000 0.409200 -0.063900
H59 H 0.433000 0.090800 -0.063900
H60 H 0.354700 0.302100 0.366500
H61 H 0.444400 0.595100 0.572200
H62 H 0.268400 0.024000 -0.273500
H63 H 0.338000 0.644800 0.735300
H64 H 0.108200 0.000400 -0.295400
H65 H 0.029900 0.027500 -0.177900
H66 H 0.470100 0.527500 0.322100
H67 H 0.162000 0.144800 0.235300
H68 H 0.391800 0.500400 0.204600
H69 H 0.231600 0.524000 0.226500
H70 H 0.055600 0.095100 0.072200
H71 H 0.067000 0.590800 0.436100
H72 H 0.145300 0.697900 0.866500
C73 C 0.462200 0.709450 0.348800
C74 C 0.151400 0.053750 -0.126500
C75 C 0.462200 0.790550 0.348800
C76 C 0.778600 0.383950 0.421200
C77 C 0.347900 0.147170 0.178400
C78 C 0.221400 0.616050 0.578800
C79 C 0.253400 0.548500 0.325600
C80 C 0.119200 0.090890 0.033500
C81 C 0.381000 0.771210 0.246900
C82 C 0.310900 0.078890 -0.078100
C83 C 0.183600 0.120650 0.130500
C84 C 0.316400 0.620650 0.630500
C85 C 0.746600 0.451500 0.674400
C86 C 0.189100 0.578890 0.421900
C87 C 0.380800 0.590890 0.533500
C88 C 0.246600 0.048500 -0.174400
C89 C 0.152100 0.647170 0.678400
C90 C 0.348600 0.553750 0.373500
C91 C 0.037800 0.290550 0.848800
C92 C 0.278600 0.116050 0.078800
C93 C 0.119000 0.271210 0.746900
C94 C 0.683600 0.379350 0.369500
C95 C 0.037800 0.209450 0.848800
C96 C 0.278600 0.383950 0.078800
C97 C 0.246600 0.451500 -0.174400
C98 C 0.810900 0.421110 0.578100
C99 C 0.119000 0.228790 0.746900
C100 C 0.619200 0.409110 0.466500
C101 C 0.348600 0.946250 0.373500
C102 C 0.183600 0.379350 0.130500
C103 C 0.152100 0.852830 0.678400
C104 C 0.310900 0.421110 -0.078100
C105 C 0.119200 0.409110 0.033500
C106 C 0.380800 0.909110 0.533500
C107 C 0.347900 0.352830 0.178400
C108 C 0.151400 0.446250 -0.126500
C109 C 0.537800 0.209450 0.651200
C110 C 0.189100 0.921110 0.421900
C111 C 0.847900 0.352830 0.321600
C112 C 0.619000 0.228790 0.753100
C113 C 0.316400 0.879350 0.630500
C114 C 0.778600 0.116050 0.421200
C115 C 0.746600 0.048500 0.674400
C116 C 0.651400 0.446250 0.626500
C117 C 0.537800 0.290550 0.651200
C118 C 0.253400 0.951500 0.325600
C119 C 0.221400 0.883950 0.578800
C120 C 0.683600 0.120650 0.369500
C121 C 0.619000 0.271210 0.753100
C122 C 0.810900 0.078890 0.578100
C123 C 0.619200 0.090890 0.466500
C124 C 0.962200 0.790550 0.151200
C125 C 0.847900 0.147170 0.321600
C126 C 0.651400 0.053750 0.626500
C127 C 0.381000 0.728790 0.246900
C128 C 0.881000 0.771210 0.253100
C129 C 0.721400 0.616050 0.921200
C130 C 0.962200 0.709450 0.151200
C131 C 0.848600 0.553750 1.126500
C132 C 0.721400 0.883950 0.921200
C133 C 0.753400 0.951500 1.174400
C134 C 0.652100 0.647170 0.821600
C135 C 0.753400 0.548500 1.174400
C136 C 0.880800 0.590890 0.966500
C137 C 0.689100 0.578890 1.078100
C138 C 0.816400 0.879350 0.869500
C139 C 0.816400 0.620650 0.869500
C140 C 0.689100 0.921110 1.078100
C141 C 0.880800 0.909110 0.966500
C142 C 0.881000 0.728790 0.253100
C143 C 0.652100 0.852830 0.821600
C144 C 0.848600 0.946250 1.126500
N145 N 1.039800 0.729190 0.050800
N146 N 0.911200 0.523520 1.210200
N147 N 0.911200 0.976480 1.210200
N148 N 0.411200 0.523520 0.289800
N149 N 0.539800 0.770810 0.449200
N150 N 1.039800 0.770810 0.050800
N151 N 0.088800 0.023520 -0.210200
N152 N 0.588800 0.476480 0.710200
N153 N -0.039800 0.270810 0.949200
N154 N 0.088800 0.476480 -0.210200
N155 N 0.460200 0.270810 0.550800
N156 N -0.039800 0.229190 0.949200
N157 N 0.539800 0.729190 0.449200
N158 N 0.588800 0.023520 0.710200
N159 N 0.411200 0.976480 0.289800
N160 N 0.460200 0.229190 0.550800
O161 O 0.901740 0.071070 0.632000
O162 O 0.933100 0.142800 0.353600
O163 O 0.687800 0.681500 0.676000
O164 O 0.312200 0.181500 0.324000
O165 O 0.098260 0.928930 0.368000
O166 O 0.566900 0.642800 0.853600
O167 O 0.433100 0.142800 0.146400
O168 O 0.401740 0.071070 -0.132000
O169 O 0.401740 0.428930 -0.132000
O170 O 0.066900 0.857200 0.646400
O171 O 0.433100 0.357200 0.146400
O172 O 0.598260 0.571070 1.132000
O173 O 0.312200 0.318500 0.324000
O174 O 0.187800 0.818500 0.824000
O175 O 0.566900 0.857200 0.853600
O176 O 0.598260 0.928930 1.132000
O177 O 0.098260 0.571070 0.368000
O178 O 0.066900 0.642800 0.646400
O179 O 0.901740 0.428930 0.632000
O180 O 0.812200 0.181500 0.176000
O181 O 0.687800 0.818500 0.676000
O182 O 0.933100 0.357200 0.353600
O183 O 0.187800 0.681500 0.824000
O184 O 0.812200 0.318500 0.176000

#END
