./LAFHUV_from_POSCAR.cif_generated_by_CrystalShift
_symmetry_cell_setting triclinic
_symmetry_space_group_name_H-M 'P 1'
loop_
_symmetry_equiv_pos_site_id
_symmetry_equiv_pos_as_xyz
1 x,y,z
_cell_length_a 7.849000
_cell_length_b 9.375000
_cell_length_c 12.251000
_cell_angle_alpha 85.460000
_cell_angle_beta 79.000000
_cell_angle_gamma 75.080000
_cell_volume 854.656904
loop_
_atom_site_label
_atom_site_type_symbol
_atom_site_fract_x
_atom_site_fract_y
_atom_site_fract_z
H1 H 0.769700 0.071100 1.537900
H2 H 0.642800 -0.039300 1.561200
H3 H 0.905800 0.099400 1.308500
H4 H 0.971700 -0.098900 1.166000
H5 H 0.798900 -0.101400 1.025800
H6 H 0.441100 0.346000 0.848100
H7 H 0.712300 0.302200 0.599600
H8 H 0.896500 0.333600 0.602100
H9 H 0.769500 0.433600 0.523800
H10 H 0.429100 0.626000 0.733800
H11 H 0.488600 0.617300 0.607400
H12 H 0.417300 0.489300 0.678800
H13 H 0.698100 0.696000 0.725700
H14 H 0.810000 0.641900 0.609200
H15 H 1.017600 0.641300 0.724000
H16 H 1.037800 0.478800 0.693700
H17 H 0.811200 0.729400 0.885400
H18 H 1.027900 0.466500 0.879800
H19 H 0.694600 0.420500 1.044800
H20 H 0.857300 0.283100 1.011000
H21 H 0.504500 0.285000 1.024500
H22 H 0.230300 0.928900 -0.537900
H23 H 0.160500 1.097100 -0.555800
H24 H 0.357200 1.039300 -0.561200
H25 H 0.094200 0.900600 -0.308500
H26 H 0.495500 0.715000 -0.024500
H27 H 0.142700 0.716900 -0.011000
H28 H 0.305400 0.579500 -0.044800
H29 H -0.027900 0.533500 0.120200
H30 H 0.188800 0.270600 0.114600
H31 H -0.037800 0.521200 0.306300
H32 H -0.017600 0.358700 0.276000
H33 H 0.190000 0.358100 0.390800
H34 H 0.301900 0.304000 0.274300
H35 H 0.582700 0.510700 0.321200
H36 H 0.511400 0.382700 0.392600
H37 H 0.570900 0.374000 0.266200
H38 H 0.230500 0.566400 0.476200
H39 H 0.103500 0.666400 0.397900
H40 H 0.287700 0.697800 0.400400
H41 H 0.558900 0.654000 0.151900
H42 H 0.201100 1.101400 -0.025800
H43 H 0.028300 1.098900 -0.166000
H44 H 0.839500 -0.097100 1.555800
C45 C 0.275300 1.170200 -0.360400
C46 C 0.246200 1.023000 -0.522400
C47 C 0.218300 1.049600 -0.400800
C48 C 0.311100 0.949000 0.148800
C49 C 0.688900 0.051000 0.851200
C50 C 0.312700 0.901500 0.037200
C51 C 0.687300 0.098500 0.962800
C52 C 0.612000 0.262100 0.969600
C53 C 0.744900 0.350000 0.987500
C54 C 0.782400 0.430100 0.877800
C55 C 0.915100 0.523500 0.856600
C56 C 0.388000 0.737900 0.030400
C57 C 0.953500 0.564400 0.733500
C58 C 0.782700 0.610900 0.685000
C59 C 0.684000 0.488400 0.690500
C60 C 0.490600 0.558700 0.675600
C61 C 0.774000 0.379400 0.596700
C62 C 0.686100 0.410200 0.804100
C63 C 0.571900 0.306300 0.850900
C64 C 0.752700 0.003100 1.039000
C65 C 0.255100 0.650000 0.012500
C66 C 0.217600 0.569900 0.122200
C67 C 0.852000 -0.053900 1.210100
C68 C 0.854700 0.017500 1.313700
C69 C 0.781700 -0.049600 1.400800
C70 C 0.753800 -0.023000 1.522400
C71 C 0.724700 -0.170200 1.360400
C72 C 0.084900 0.476500 0.143400
C73 C 0.145300 0.982500 -0.313700
C74 C 0.148000 1.053900 -0.210100
C75 C 0.046500 0.435600 0.266500
C76 C 0.217300 0.389100 0.315000
C77 C 0.247300 0.996900 -0.039000
C78 C 0.428100 0.693700 0.149100
C79 C 0.313900 0.589800 0.195900
C80 C 0.226000 0.620600 0.403300
C81 C 0.509400 0.441300 0.324400
C82 C 0.316000 0.511600 0.309500
O83 O 0.247900 0.950200 -0.141700
O84 O 0.233200 1.169500 -0.246100
O85 O 0.149200 0.348900 0.074500
O86 O 0.656500 -0.260900 1.411200
O87 O 0.766800 -0.169500 1.246100
O88 O 0.752100 0.049800 1.141700
O89 O 0.850800 0.651100 0.925500
O90 O 0.740300 -0.071200 0.813700
O91 O 0.259700 1.071200 0.186300
O92 O 0.626300 0.168700 0.787800
O93 O 0.343500 1.260900 -0.411200
O94 O 0.373700 0.831300 0.212200

#END
