
#######################################################################
#
#                 Cambridge Crystallographic Data Centre
#                                CCDC 
#
#######################################################################
#
# If this CIF has been generated from an entry in the Cambridge 
# Structural Database, then it will include bibliographic, chemical, 
# crystal, experimental, refinement or atomic coordinate data resulting 
# from the CCDC's data processing and validation procedures.
#
#######################################################################

data_LAFJOR
_symmetry_cell_setting           monoclinic
_symmetry_space_group_name_H-M   'P 21'
_symmetry_Int_Tables_number      4
_space_group_name_Hall           'P 2yb'
loop_
_symmetry_equiv_pos_site_id
_symmetry_equiv_pos_as_xyz
1 x,y,z
2 -x,1/2+y,-z
_cell_length_a                   5.52(2)
_cell_length_b                   32.57(2)
_cell_length_c                   5.56(2)
_cell_angle_alpha                90
_cell_angle_beta                 90.00
_cell_angle_gamma                90
_cell_volume                     999.612
loop_
_atom_site_label
_atom_site_type_symbol
_atom_site_fract_x
_atom_site_fract_y
_atom_site_fract_z
C1 C 0.757(2) 0.9863(4) 1.075(2)
C2 C 0.785(2) 0.9543(4) 0.878(2)
C3 C 0.547(2) 0.9441(4) 0.749(2)
C4 C 0.575(2) 0.9078(4) 0.577(2)
C5 C 0.342(2) 0.8966(4) 0.439(2)
C6 C 0.382(2) 0.8599(4) 0.274(2)
C7 C 0.156(2) 0.8478(4) 0.135(2)
C8 C 0.195(2) 0.8103(4) -0.027(2)
C9 C -0.033(2) 0.7987(4) -0.172(2)
C10 C 0.009(2) 0.7614(4) -0.335(2)
C11 C -0.224 0.745 -0.454
C12 C -0.182(2) 0.7121(4) -0.637(3)
C13 C -0.402(3) 0.7002(5) -0.782(3)
C14 C 0.682(2) 1.02827(10) 0.990(2)
C15 C 0.670(2) 1.0622(4) 1.183(2)
C16 C 0.729(2) 1.1012(4) 1.044(2)
C17 C 0.894(2) 1.0844(4) 0.850(2)
C18 C 0.433(2) 1.0632(4) 1.306(2)
C19 C 0.832(2) 1.1374(4) 1.176(2)
O1 O 0.432(1) 1.0873(4) 1.494(1)
O2 O 0.255(2) 1.0454(4) 1.247(2)
O3 O 0.8631(9) 1.0444(3) 0.8214(9)
O4 O 1.04(2) 1.1039(3) 0.739(1)
H1 H 0.93(2) 0.988(3) 1.17(2)
H2 H 0.64(2) 0.978(3) 1.20(2)
H3 H 0.92(2) 0.964(3) 0.77(2)
H4 H 0.86(2) 0.925(3) 0.92(2)
H5 H 0.48(2) 0.975(3) 0.68(2)
H6 H 0.43(2) 0.940(3) 0.85(2)
H7 H 0.72(2) 0.916(3) 0.45(2)
H8 H 0.62(2) 0.882(3) 0.65(2)
H9 H 0.19(2) 0.893(3) 0.57(2)
H10 H 0.27(2) 0.923(3) 0.39(2)
H11 H 0.37(2) 0.841(3) 0.39(2)
H12 H 0.51(2) 0.860(3) 0.18(2)
H13 H 0.11(2) 0.868(3) 0.04(2)
H14 H 0.05(2) 0.848(3) 0.22(2)
H15 H 0.32(2) 0.811(3) -0.13(2)
H16 H 0.28(2) 0.790(3) 0.06(2)
H17 H -0.11(2) 0.816(3) -0.24(2)
H18 H -0.21(2) 0.800(3) -0.03(2)
H19 H 0.18(2) 0.759(3) -0.38(2)
H20 H 0.02(2) 0.742(3) -0.21(2)
H21 H -0.29(2) 0.773(3) -0.52(2)
H22 H -0.39(2) 0.755(3) -0.38(2)
H23 H -0.11(2) 0.690(3) -0.55(2)
H24 H 0.03(2) 0.715(3) -0.73(2)
H25 H -0.50(3) 0.688(4) -0.67(3)
H26 H -0.37(3) 0.673(4) -0.88(3)
H27 H -0.47(2) 0.725(4) -0.82(3)
H28 H 0.52(2) 1.027(2) 0.89(2)
H29 H 0.81(2) 1.056(2) 1.29(2)
H30 H 0.58(2) 1.108(2) 0.95(2)
H31 H 0.88(3) 1.161(4) 1.11(3)
H32 H 0.70(3) 1.143(4) 1.26(2)
H33 H 1.01(2) 1.128(4) 1.20(3)
C1 C 0.243(2) 0.4863(4) -0.075(2)
C2 C 0.215(2) 0.4543(4) 0.122(2)
C3 C 0.453(2) 0.4441(4) 0.251(2)
C4 C 0.425(2) 0.4078(4) 0.423(2)
C5 C 0.658(2) 0.3966(4) 0.561(2)
C6 C 0.618(2) 0.3599(4) 0.726(2)
C7 C 0.844(2) 0.3478(4) 0.865(2)
C8 C 0.805(2) 0.3103(4) 1.027(2)
C9 C 1.033(2) 0.2987(4) 1.172(2)
C10 C 0.991(2) 0.2614(4) 1.335(2)
C11 C 1.224 0.245 1.454
C12 C 1.182(2) 0.2121(4) 1.637(3)
C13 C 1.402(3) 0.2002(5) 1.782(3)
C14 C 0.318(2) 0.52827(10) 0.010(2)
C15 C 0.330(2) 0.5622(4) -0.183(2)
C16 C 0.271(2) 0.6012(4) -0.044(2)
C17 C 0.106(2) 0.5844(4) 0.150(2)
C18 C 0.567(2) 0.5632(4) -0.306(2)
C19 C 0.168(2) 0.6374(4) -0.176(2)
O1 O 0.568(1) 0.5873(4) -0.494(1)
O2 O 0.745(2) 0.5454(4) -0.247(2)
O3 O 0.1369(9) 0.5444(3) 0.1786(9)
O4 O -0.04(2) 0.6039(3) 0.261(1)
H1 H 0.07(2) 0.488(3) -0.17(2)
H2 H 0.36(2) 0.478(3) -0.20(2)
H3 H 0.08(2) 0.464(3) 0.23(2)
H4 H 0.14(2) 0.425(3) 0.08(2)
H5 H 0.52(2) 0.475(3) 0.32(2)
H6 H 0.57(2) 0.440(3) 0.15(2)
H7 H 0.28(2) 0.416(3) 0.55(2)
H8 H 0.38(2) 0.382(3) 0.35(2)
H9 H 0.81(2) 0.393(3) 0.43(2)
H10 H 0.73(2) 0.423(3) 0.61(2)
H11 H 0.63(2) 0.341(3) 0.61(2)
H12 H 0.49(2) 0.360(3) 0.82(2)
H13 H 0.89(2) 0.368(3) 0.96(2)
H14 H 0.95(2) 0.348(3) 0.78(2)
H15 H 0.68(2) 0.311(3) 1.13(2)
H16 H 0.72(2) 0.290(3) 0.94(2)
H17 H 1.11(2) 0.316(3) 1.24(2)
H18 H 1.21(2) 0.300(3) 1.03(2)
H19 H 0.82(2) 0.259(3) 1.38(2)
H20 H 0.98(2) 0.242(3) 1.21(2)
H21 H 1.29(2) 0.273(3) 1.52(2)
H22 H 1.39(2) 0.255(3) 1.38(2)
H23 H 1.11(2) 0.190(3) 1.55(2)
H24 H 0.97(2) 0.215(3) 1.73(2)
H25 H 1.50(3) 0.188(4) 1.67(3)
H26 H 1.37(3) 0.173(4) 1.88(3)
H27 H 1.47(2) 0.225(4) 1.82(3)
H28 H 0.48(2) 0.527(2) 0.11(2)
H29 H 0.19(2) 0.556(2) -0.29(2)
H30 H 0.42(2) 0.608(2) 0.05(2)
H31 H 0.12(3) 0.661(4) -0.11(3)
H32 H 0.30(3) 0.643(4) -0.26(2)
H33 H -0.01(2) 0.628(4) -0.20(3)

#END
