./LAFJUX_from_POSCAR.cif_generated_by_CrystalShift
_symmetry_cell_setting triclinic
_symmetry_space_group_name_H-M 'P 1'
loop_
_symmetry_equiv_pos_site_id
_symmetry_equiv_pos_as_xyz
1 x,y,z
_cell_length_a 5.149400
_cell_length_b 10.433200
_cell_length_c 11.512900
_cell_angle_alpha 90.000000
_cell_angle_beta 90.000000
_cell_angle_gamma 90.000000
_cell_volume 618.527330
loop_
_atom_site_label
_atom_site_type_symbol
_atom_site_fract_x
_atom_site_fract_y
_atom_site_fract_z
H1 H 0.908000 0.305000 0.368000
H2 H 0.071000 0.142000 0.561000
H3 H 0.179000 0.399000 0.620000
H4 H -0.085000 0.326000 0.619000
H5 H 0.465000 0.420000 0.791000
H6 H 0.309000 0.426000 0.923000
H7 H 0.571000 0.358000 0.439000
H8 H 0.679000 0.101000 0.380000
H9 H 0.415000 0.174000 0.381000
H10 H 1.069000 0.869000 0.682000
H11 H 1.039000 0.638000 0.625000
H12 H 0.691000 0.926000 0.577000
H13 H 0.535000 0.920000 0.709000
H14 H 1.085000 0.826000 0.881000
H15 H 0.821000 0.899000 0.880000
H16 H 0.929000 0.642000 0.939000
H17 H 0.592000 0.695000 0.868000
H18 H -0.039000 0.138000 0.875000
H19 H -0.069000 0.369000 0.818000
H20 H 0.431000 0.131000 0.182000
H21 H 0.092000 0.805000 0.132000
H22 H 0.429000 0.858000 0.061000
H23 H 0.321000 0.601000 0.120000
H24 H 0.965000 0.080000 0.209000
H25 H 0.809000 0.074000 0.077000
H26 H 0.461000 0.362000 0.125000
H27 H 0.569000 0.631000 0.318000
H28 H 0.539000 0.862000 0.375000
H29 H 0.191000 0.574000 0.423000
H30 H 0.035000 0.580000 0.291000
H31 H 0.585000 0.674000 0.119000
H32 H 0.408000 0.195000 0.632000
C33 C 0.305000 0.819200 0.129300
C34 C 0.397000 0.689000 0.157400
C35 C 0.356400 0.153800 0.886300
C36 C 0.339000 0.371000 0.847400
C37 C 0.100400 0.314200 0.788900
C38 C 0.103000 0.311000 0.657400
C39 C 0.195000 0.180800 0.629300
C40 C 0.102800 0.173400 0.822000
C41 C 0.399600 0.685800 0.288900
C42 C 0.602800 0.326600 0.178000
C43 C 0.695000 0.319200 0.370700
C44 C 0.161000 0.629000 0.347400
C45 C 0.143600 0.846200 0.386300
C46 C 0.897200 0.673400 0.678000
C47 C 0.805000 0.680800 0.870700
C48 C 0.897000 0.811000 0.842600
C49 C 0.899600 0.814200 0.711100
C50 C 0.661000 0.871000 0.652600
C51 C 0.397200 0.826600 0.322000
C52 C 0.856400 0.346200 0.113700
C53 C 0.839000 0.129000 0.152600
C54 C 0.600400 0.185800 0.211100
C55 C 0.603000 0.189000 0.342600
C56 C 0.643600 0.653800 0.613700
O57 O 0.104300 0.099800 0.718500
O58 O 0.981500 0.234900 0.100600
O59 O 0.604300 0.400200 0.281500
O60 O 0.945200 0.445000 0.078800
O61 O 0.481500 0.265100 0.899400
O62 O 0.054800 0.945000 0.421200
O63 O 0.395700 0.900200 0.218500
O64 O 0.018500 0.734900 0.399400
O65 O 0.554800 0.555000 0.578800
O66 O 0.895700 0.599800 0.781500
O67 O 0.518500 0.765100 0.600600
O68 O 0.445200 0.055000 0.921200

#END
