
#######################################################################
#
#                 Cambridge Crystallographic Data Centre
#                                CCDC 
#
#######################################################################
#
# If this CIF has been generated from an entry in the Cambridge 
# Structural Database, then it will include bibliographic, chemical, 
# crystal, experimental, refinement or atomic coordinate data resulting 
# from the CCDC's data processing and validation procedures.
#
#######################################################################

data_LAFJUX
_symmetry_cell_setting           orthorhombic
_symmetry_space_group_name_H-M   'P 21 21 21'
_symmetry_Int_Tables_number      19
_space_group_name_Hall           'P 2ac 2ab'
loop_
_symmetry_equiv_pos_site_id
_symmetry_equiv_pos_as_xyz
1 x,y,z
2 1/2+x,1/2-y,-z
3 -x,1/2+y,1/2-z
4 1/2-x,-y,1/2+z
_cell_length_a                   5.1494(5)
_cell_length_b                   10.4332(6)
_cell_length_c                   11.5129(8)
_cell_angle_alpha                90
_cell_angle_beta                 90
_cell_angle_gamma                90
_cell_volume                     618.527
loop_
_atom_site_label
_atom_site_type_symbol
_atom_site_fract_x
_atom_site_fract_y
_atom_site_fract_z
C1 C 0.6436(6) 0.6538(3) 0.6137(2)
C2 C 0.6610(6) 0.8710(3) 0.6526(3)
C3 C 0.8996(5) 0.8142(3) 0.7111(3)
C4 C 0.897(1) 0.8110(4) 0.8426(3)
C5 C 0.805(1) 0.6808(4) 0.8707(3)
C6 C 0.8972(5) 0.6734(3) 0.6780(2)
O1 O 0.5185(3) 0.7651(2) 0.6006(2)
O2 O 0.8957(5) 0.5998(2) 0.7815(2)
O3 O 0.5548(5) 0.5550(2) 0.5788(2)
H1 H 1.069(8) 0.869(5) 0.682(5)
H2 H 1.039(9) 0.638(5) 0.625(4)
H3 H 0.691(12) 0.926(5) 0.577(3)
H4 H 0.535(10) 0.920(5) 0.709(4)
H5 H 1.085(7) 0.826(5) 0.881(4)
H6 H 0.821(11) 0.899(4) 0.880(5)
H7 H 0.929(10) 0.642(5) 0.939(4)
H8 H 0.592(6) 0.695(5) 0.868(5)
C1 C 0.1436(6) 0.8462(3) 0.3863(2)
C2 C 0.1610(6) 0.6290(3) 0.3474(3)
C3 C 0.3996(5) 0.6858(3) 0.2889(3)
C4 C 0.397(1) 0.6890(4) 0.1574(3)
C5 C 0.305(1) 0.8192(4) 0.1293(3)
C6 C 0.3972(5) 0.8266(3) 0.3220(2)
O1 O 0.0185(3) 0.7349(2) 0.3994(2)
O2 O 0.3957(5) 0.9002(2) 0.2185(2)
O3 O 0.0548(5) 0.9450(2) 0.4212(2)
H1 H 0.569(8) 0.631(5) 0.318(5)
H2 H 0.539(9) 0.862(5) 0.375(4)
H3 H 0.191(12) 0.574(5) 0.423(3)
H4 H 0.035(10) 0.580(5) 0.291(4)
H5 H 0.585(7) 0.674(5) 0.119(4)
H6 H 0.321(11) 0.601(4) 0.120(5)
H7 H 0.429(10) 0.858(5) 0.061(4)
H8 H 0.092(6) 0.805(5) 0.132(5)
C1 C 0.3564(6) 0.1538(3) 0.8863(2)
C2 C 0.3390(6) 0.3710(3) 0.8474(3)
C3 C 0.1004(5) 0.3142(3) 0.7889(3)
C4 C 0.103(1) 0.3110(4) 0.6574(3)
C5 C 0.195(1) 0.1808(4) 0.6293(3)
C6 C 0.1028(5) 0.1734(3) 0.8220(2)
O1 O 0.4815(3) 0.2651(2) 0.8994(2)
O2 O 0.1043(5) 0.0998(2) 0.7185(2)
O3 O 0.4452(5) 0.0550(2) 0.9212(2)
H1 H -0.069(8) 0.369(5) 0.818(5)
H2 H -0.039(9) 0.138(5) 0.875(4)
H3 H 0.309(12) 0.426(5) 0.923(3)
H4 H 0.465(10) 0.420(5) 0.791(4)
H5 H -0.085(7) 0.326(5) 0.619(4)
H6 H 0.179(11) 0.399(4) 0.620(5)
H7 H 0.071(10) 0.142(5) 0.561(4)
H8 H 0.408(6) 0.195(5) 0.632(5)
C1 C 0.8564(6) 0.3462(3) 0.1137(2)
C2 C 0.8390(6) 0.1290(3) 0.1526(3)
C3 C 0.6004(5) 0.1858(3) 0.2111(3)
C4 C 0.603(1) 0.1890(4) 0.3426(3)
C5 C 0.695(1) 0.3192(4) 0.3707(3)
C6 C 0.6028(5) 0.3266(3) 0.1780(2)
O1 O 0.9815(3) 0.2349(2) 0.1006(2)
O2 O 0.6043(5) 0.4002(2) 0.2815(2)
O3 O 0.9452(5) 0.4450(2) 0.0788(2)
H1 H 0.431(8) 0.131(5) 0.182(5)
H2 H 0.461(9) 0.362(5) 0.125(4)
H3 H 0.809(12) 0.074(5) 0.077(3)
H4 H 0.965(10) 0.080(5) 0.209(4)
H5 H 0.415(7) 0.174(5) 0.381(4)
H6 H 0.679(11) 0.101(4) 0.380(5)
H7 H 0.571(10) 0.358(5) 0.439(4)
H8 H 0.908(6) 0.305(5) 0.368(5)

#END
