
#######################################################################
#
#                 Cambridge Crystallographic Data Centre
#                                CCDC 
#
#######################################################################
#
# If this CIF has been generated from an entry in the Cambridge 
# Structural Database, then it will include bibliographic, chemical, 
# crystal, experimental, refinement or atomic coordinate data resulting 
# from the CCDC's data processing and validation procedures.
#
#######################################################################

data_LAFKAE02
_symmetry_cell_setting           triclinic
_symmetry_space_group_name_H-M   'P -1'
_symmetry_Int_Tables_number      2
_space_group_name_Hall           '-P 1'
loop_
_symmetry_equiv_pos_site_id
_symmetry_equiv_pos_as_xyz
1 x,y,z
2 -x,-y,-z
_cell_length_a                   8.7380(2)
_cell_length_b                   11.4571(3)
_cell_length_c                   11.7097(4)
_cell_angle_alpha                90.952(2)
_cell_angle_beta                 103.4620(10)
_cell_angle_gamma                106.2250(10)
_cell_volume                     1090.47
loop_
_atom_site_label
_atom_site_type_symbol
_atom_site_fract_x
_atom_site_fract_y
_atom_site_fract_z
O1 O 0.60712(14) 0.37270(9) 0.57885(8)
H1 H 0.567(2) 0.4256(19) 0.6140(18)
C1 C 0.59017(17) 0.26368(12) 0.63992(10)
C2 C 0.42116(18) 0.21676(13) 0.66419(12)
C3 C 0.2705(2) 0.18396(18) 0.58360(18)
H2 H 0.2633 0.1865 0.5015
C4 C 0.1302(3) 0.1473(2) 0.6247(2)
H3 H 0.0255 0.1247 0.5702
C5 C 0.1397(2) 0.14294(17) 0.7434(2)
H4 H 0.0413 0.1176 0.7695
C6 C 0.2928(2) 0.17534(15) 0.82701(18)
H5 H 0.2993 0.1716 0.9089
C7 C 0.43400(18) 0.21294(11) 0.78542(12)
C8 C 0.60837(18) 0.25695(11) 0.84717(10)
C9 C 0.70132(17) 0.28845(11) 0.76405(11)
C10 C 0.8705(2) 0.33418(15) 0.80031(14)
H6 H 0.9349 0.3552 0.7445
C11 C 0.9449(2) 0.34876(17) 0.92150(17)
H7 H 1.0611 0.3812 0.9479
C12 C 0.8532(3) 0.31701(17) 1.00259(15)
H8 H 0.9063 0.3273 1.0843
C13 C 0.6856(2) 0.27054(14) 0.96668(12)
H9 H 0.6225 0.2477 1.0231
C14 C 0.6302(2) 0.17239(14) 0.56417(12)
H10 H 0.5498 0.1537 0.4876
H11 H 0.6259 0.0973 0.6038
H12 H 0.7408 0.2074 0.5524
O1 O 0.39288(14) 0.62730(9) 0.42115(8)
H1 H 0.433(2) 0.5744(19) 0.3860(18)
C1 C 0.40983(17) 0.73632(12) 0.36008(10)
C2 C 0.57884(18) 0.78324(13) 0.33581(12)
C3 C 0.7295(2) 0.81604(18) 0.41640(18)
H2 H 0.7367 0.8135 0.4985
C4 C 0.8698(3) 0.8527(2) 0.3753(2)
H3 H 0.9745 0.8753 0.4298
C5 C 0.8603(2) 0.85706(17) 0.2566(2)
H4 H 0.9587 0.8824 0.2305
C6 C 0.7072(2) 0.82466(15) 0.17299(18)
H5 H 0.7007 0.8284 0.0911
C7 C 0.56600(18) 0.78706(11) 0.21458(12)
C8 C 0.39163(18) 0.74305(11) 0.15283(10)
C9 C 0.29868(17) 0.71155(11) 0.23595(11)
C10 C 0.1295(2) 0.66582(15) 0.19969(14)
H6 H 0.0651 0.6448 0.2555
C11 C 0.0551(2) 0.65124(17) 0.07850(17)
H7 H -0.0611 0.6188 0.0521
C12 C 0.1468(3) 0.68299(17) -0.00259(15)
H8 H 0.0937 0.6727 -0.0843
C13 C 0.3144(2) 0.72946(14) 0.03332(12)
H9 H 0.3775 0.7523 -0.0231
C14 C 0.3698(2) 0.82761(14) 0.43583(12)
H10 H 0.4502 0.8463 0.5124
H11 H 0.3741 0.9027 0.3962
H12 H 0.2592 0.7926 0.4476
O2 O 0.51128(17) 0.44556(10) 0.35899(9)
H13 H 0.530(2) 0.4066(19) 0.4196(19)
C15 C 0.5441(2) 0.38851(11) 0.26106(10)
C16 C 0.70203(18) 0.35180(12) 0.29519(10)
C17 C 0.8611(2) 0.42323(19) 0.34731(14)
H14 H 0.8834 0.5078 0.3683
C18 C 0.9871(2) 0.3687(3) 0.36816(16)
H15 H 1.0966 0.4164 0.4039
C19 C 0.9551(2) 0.2465(3) 0.33758(15)
H16 H 1.0436 0.2114 0.3514
C20 C 0.7976(2) 0.17341(18) 0.28733(13)
H17 H 0.7765 0.0887 0.2677
C21 C 0.67036(17) 0.22773(12) 0.26625(10)
C22 C 0.49380(16) 0.17472(11) 0.21596(10)
C23 C 0.41716(17) 0.26655(12) 0.21489(10)
C24 C 0.2485(2) 0.23922(19) 0.17298(14)
H18 H 0.1956 0.3013 0.1723
C25 C 0.1578(2) 0.1201(2) 0.13209(16)
H19 H 0.0417 0.1004 0.1042
C26 C 0.2333(2) 0.03017(19) 0.13124(16)
H20 H 0.169 -0.0508 0.1017
C27 C 0.4015(2) 0.05584(13) 0.17277(13)
H21 H 0.4535 -0.0067 0.1719
C28 C 0.5490(3) 0.47956(14) 0.16731(13)
H22 H 0.4432 0.4975 0.1454
H23 H 0.5699 0.4446 0.0976
H24 H 0.6369 0.555 0.1987
O2 O 0.48872(17) 0.55444(10) 0.64101(9)
H13 H 0.470(2) 0.5934(19) 0.5804(19)
C15 C 0.4559(2) 0.61149(11) 0.73894(10)
C16 C 0.29797(18) 0.64820(12) 0.70481(10)
C17 C 0.1389(2) 0.57677(19) 0.65269(14)
H14 H 0.1166 0.4922 0.6317
C18 C 0.0129(2) 0.6313(3) 0.63184(16)
H15 H -0.0966 0.5836 0.5961
C19 C 0.0449(2) 0.7535(3) 0.66242(15)
H16 H -0.0436 0.7886 0.6486
C20 C 0.2024(2) 0.82659(18) 0.71267(13)
H17 H 0.2235 0.9113 0.7323
C21 C 0.32964(17) 0.77227(12) 0.73375(10)
C22 C 0.50620(16) 0.82528(11) 0.78404(10)
C23 C 0.58284(17) 0.73345(12) 0.78511(10)
C24 C 0.7515(2) 0.76078(19) 0.82702(14)
H18 H 0.8044 0.6987 0.8277
C25 C 0.8422(2) 0.8799(2) 0.86791(16)
H19 H 0.9583 0.8996 0.8958
C26 C 0.7667(2) 0.96983(19) 0.86876(16)
H20 H 0.831 1.0508 0.8983
C27 C 0.5985(2) 0.94416(13) 0.82723(13)
H21 H 0.5465 1.0067 0.8281
C28 C 0.4510(3) 0.52044(14) 0.83269(13)
H22 H 0.5568 0.5025 0.8546
H23 H 0.4301 0.5554 0.9024
H24 H 0.3631 0.445 0.8013

#END
