
#######################################################################
#
#                 Cambridge Crystallographic Data Centre
#                                CCDC 
#
#######################################################################
#
# If this CIF has been generated from an entry in the Cambridge 
# Structural Database, then it will include bibliographic, chemical, 
# crystal, experimental, refinement or atomic coordinate data resulting 
# from the CCDC's data processing and validation procedures.
#
#######################################################################

data_LAFKAE
_symmetry_cell_setting           triclinic
_symmetry_space_group_name_H-M   'P -1'
_symmetry_Int_Tables_number      2
_space_group_name_Hall           '-P 1'
loop_
_symmetry_equiv_pos_site_id
_symmetry_equiv_pos_as_xyz
1 x,y,z
2 -x,-y,-z
_cell_length_a                   8.779(1)
_cell_length_b                   11.570(1)
_cell_length_c                   11.747(1)
_cell_angle_alpha                91.197(5)
_cell_angle_beta                 104.345(4)
_cell_angle_gamma                105.848(6)
_cell_volume                     1107.01
loop_
_atom_site_label
_atom_site_type_symbol
_atom_site_fract_x
_atom_site_fract_y
_atom_site_fract_z
C1 C -0.0826(4) 0.2661(3) 0.2148(2)
C2 C -0.2506(5) 0.2365(4) 0.1742(3)
C3 C -0.3379(6) 0.1188(5) 0.1361(4)
C4 C -0.2613(7) 0.0296(4) 0.1352(4)
C5 C -0.0941(6) 0.0580(3) 0.1760(3)
C6 C -0.0032(4) 0.1765(2) 0.2171(2)
C7 C 0.1696(4) 0.2297(3) 0.2656(2)
C8 C 0.2968(6) 0.1760(4) 0.2872(3)
C9 C 0.4529(7) 0.2492(8) 0.3350(4)
C10 C 0.4861(7) 0.3710(7) 0.3650(4)
C11 C 0.3575(7) 0.4244(4) 0.3443(4)
C12 C 0.2009(4) 0.3530(3) 0.2938(3)
C13 C 0.0414(4) 0.3870(2) 0.2592(2)
O1 O 0.0109(3) 0.4446(2) 0.3573(2)
C14 C 0.0384(6) 0.4754(3) 0.1654(3)
H1 H -0.3091 0.2997 0.1718
H2 H -0.4601 0.0963 0.1086
H3 H -0.3374 -0.0694 0.1064
H4 H -0.0395 -0.0179 0.1808
H5 H 0.2818 0.0758 0.2637
H6 H 0.5459 0.2126 0.3497
H7 H 0.6010 0.4222 0.4004
H8 H 0.3792 0.5125 0.3663
H9 H 0.0255 0.4020 0.4231
H10 H 0.0602 0.4439 0.0959
H11 H -0.0740 0.4955 0.1396
H12 H 0.1263 0.5515 0.2010
C1 C 1.0826(4) 0.7339(3) 0.7852(2)
C2 C 1.2506(5) 0.7635(4) 0.8258(3)
C3 C 1.3379(6) 0.8812(5) 0.8639(4)
C4 C 1.2613(7) 0.9704(4) 0.8648(4)
C5 C 1.0941(6) 0.9420(3) 0.8240(3)
C6 C 1.0032(4) 0.8235(2) 0.7829(2)
C7 C 0.8304(4) 0.7703(3) 0.7344(2)
C8 C 0.7032(6) 0.8240(4) 0.7128(3)
C9 C 0.5471(7) 0.7508(8) 0.6650(4)
C10 C 0.5139(7) 0.6290(7) 0.6350(4)
C11 C 0.6425(7) 0.5756(4) 0.6557(4)
C12 C 0.7991(4) 0.6470(3) 0.7062(3)
C13 C 0.9586(4) 0.6130(2) 0.7408(2)
O1 O 0.9891(3) 0.5554(2) 0.6427(2)
C14 C 0.9616(6) 0.5246(3) 0.8346(3)
H1 H 1.3091 0.7003 0.8282
H2 H 1.4601 0.9037 0.8914
H3 H 1.3374 1.0694 0.8936
H4 H 1.0395 1.0179 0.8192
H5 H 0.7182 0.9242 0.7363
H6 H 0.4541 0.7874 0.6503
H7 H 0.3990 0.5778 0.5996
H8 H 0.6208 0.4875 0.6337
H9 H 0.9745 0.5980 0.5769
H10 H 0.9398 0.5561 0.9041
H11 H 1.0740 0.5045 0.8604
H12 H 0.8737 0.4485 0.7990
C15 C -0.0856(5) 0.2160(3) 0.6648(3)
C16 C -0.2338(6) 0.1842(4) 0.5850(5)
C17 C -0.3680(7) 0.1492(5) 0.6307(7)
C18 C -0.3595(6) 0.1438(4) 0.7482(6)
C19 C -0.2035(6) 0.1767(3) 0.8304(5)
C20 C -0.0663(4) 0.2144(2) 0.7871(3)
C21 C 0.1065(4) 0.2583(2) 0.8444(3)
C22 C 0.1858(6) 0.2716(4) 0.9640(3)
C23 C 0.3520(7) 0.3182(4) 1.0010(4)
C24 C 0.4395(6) 0.3478(4) 0.9188(4)
C25 C 0.3654(5) 0.3342(3) 0.7971(4)
C26 C 0.1918(4) 0.2873(2) 0.7603(3)
C27 C 0.0779(4) 0.2616(3) 0.6383(2)
O2 O 0.0919(3) 0.3682(2) 0.5768(2)
C28 C 0.1154(6) 0.1710(3) 0.5612(3)
H13 H -0.2449 0.1869 0.4983
H14 H -0.4788 0.1248 0.5733
H15 H -0.4620 0.1171 0.7750
H16 H -0.1914 0.1740 0.9172
H17 H 0.1128 0.2484 1.0371
H18 H 0.4309 0.3394 1.1001
H19 H 0.5614 0.3797 0.9468
H20 H 0.4364 0.3650 0.7404
H21 H 0.0684 0.4340 0.6162
H22 H 0.0470 0.1582 0.4749
H23 H 0.1041 0.0930 0.6027
H24 H 0.2321 0.2128 0.5389
C15 C 1.0856(5) 0.7840(3) 0.3352(3)
C16 C 1.2338(6) 0.8158(4) 0.4150(5)
C17 C 1.3680(7) 0.8508(5) 0.3693(7)
C18 C 1.3595(6) 0.8562(4) 0.2518(6)
C19 C 1.2035(6) 0.8233(3) 0.1696(5)
C20 C 1.0663(4) 0.7856(2) 0.2129(3)
C21 C 0.8935(4) 0.7417(2) 0.1556(3)
C22 C 0.8142(6) 0.7284(4) 0.0360(3)
C23 C 0.6480(7) 0.6818(4) -0.0010(4)
C24 C 0.5605(6) 0.6522(4) 0.0812(4)
C25 C 0.6346(5) 0.6658(3) 0.2029(4)
C26 C 0.8082(4) 0.7127(2) 0.2397(3)
C27 C 0.9221(4) 0.7384(3) 0.3617(2)
O2 O 0.9081(3) 0.6318(2) 0.4232(2)
C28 C 0.8846(6) 0.8290(3) 0.4388(3)
H13 H 1.2449 0.8131 0.5017
H14 H 1.4788 0.8752 0.4267
H15 H 1.4620 0.8829 0.2250
H16 H 1.1914 0.8260 0.0828
H17 H 0.8872 0.7516 -0.0371
H18 H 0.5691 0.6606 -0.1001
H19 H 0.4386 0.6203 0.0532
H20 H 0.5636 0.6350 0.2596
H21 H 0.9316 0.5660 0.3838
H22 H 0.9530 0.8418 0.5251
H23 H 0.8959 0.9070 0.3973
H24 H 0.7679 0.7872 0.4611

#END
