
#######################################################################
#
#                 Cambridge Crystallographic Data Centre
#                                CCDC 
#
#######################################################################
#
# If this CIF has been generated from an entry in the Cambridge 
# Structural Database, then it will include bibliographic, chemical, 
# crystal, experimental, refinement or atomic coordinate data resulting 
# from the CCDC's data processing and validation procedures.
#
#######################################################################

data_LAFKAE01
_symmetry_cell_setting           triclinic
_symmetry_space_group_name_H-M   'P -1'
_symmetry_Int_Tables_number      2
_space_group_name_Hall           '-P 1'
loop_
_symmetry_equiv_pos_site_id
_symmetry_equiv_pos_as_xyz
1 x,y,z
2 -x,-y,-z
_cell_length_a                   9.2540(2)
_cell_length_b                   11.4154(4)
_cell_length_c                   11.8476(4)
_cell_angle_alpha                89.1980(10)
_cell_angle_beta                 116.1620(10)
_cell_angle_gamma                107.1080(10)
_cell_volume                     1063.82
loop_
_atom_site_label
_atom_site_type_symbol
_atom_site_fract_x
_atom_site_fract_y
_atom_site_fract_z
O1 O 0.41573(14) 0.32575(10) 0.52814(10)
H1 H 0.426(3) 0.395(2) 0.572(2)
C1 C 0.4624(2) 0.23603(14) 0.61140(14)
C2 C 0.3671(2) 0.20828(13) 0.69137(14)
C3 C 0.1945(2) 0.16960(15) 0.65181(15)
H2 H 0.1166 0.1569 0.5641
C4 C 0.1361(2) 0.14942(16) 0.74321(17)
H3 H 0.0175 0.1242 0.7175
C5 C 0.2498(2) 0.16581(16) 0.87121(16)
H4 H 0.208 0.1505 0.9321
C6 C 0.4237(2) 0.20425(14) 0.91136(15)
H5 H 0.5013 0.215 0.999
C7 C 0.4823(2) 0.22680(14) 0.82070(15)
C8 C 0.6566(2) 0.27391(14) 0.83502(15)
C9 C 0.6466(2) 0.28172(14) 0.71369(15)
C10 C 0.7936(2) 0.32503(17) 0.69971(18)
H6 H 0.7877 0.3301 0.6178
C11 C 0.9493(2) 0.36069(18) 0.80746(19)
H7 H 1.0508 0.391 0.7991
C12 C 0.9589(2) 0.35280(17) 0.92713(19)
H8 H 1.0671 0.3777 0.9997
C13 C 0.8126(2) 0.30887(15) 0.94268(17)
H9 H 0.8195 0.303 1.0249
C14 C 0.4243(2) 0.12093(15) 0.52614(16)
H10 H 0.3036 0.0928 0.4643
H11 H 0.4509 0.0554 0.578
H12 H 0.4937 0.1406 0.4812
O1 O 0.58427(14) 0.67425(10) 0.47186(10)
H1 H 0.574(3) 0.605(2) 0.428(2)
C1 C 0.5376(2) 0.76397(14) 0.38860(14)
C2 C 0.6329(2) 0.79172(13) 0.30863(14)
C3 C 0.8055(2) 0.83040(15) 0.34819(15)
H2 H 0.8834 0.8431 0.4359
C4 C 0.8639(2) 0.85058(16) 0.25679(17)
H3 H 0.9825 0.8758 0.2825
C5 C 0.7502(2) 0.83419(16) 0.12879(16)
H4 H 0.792 0.8495 0.0679
C6 C 0.5763(2) 0.79575(14) 0.08864(15)
H5 H 0.4987 0.785 0.001
C7 C 0.5177(2) 0.77320(14) 0.17930(15)
C8 C 0.3434(2) 0.72609(14) 0.16498(15)
C9 C 0.3534(2) 0.71828(14) 0.28631(15)
C10 C 0.2064(2) 0.67497(17) 0.30029(18)
H6 H 0.2123 0.6699 0.3822
C11 C 0.0507(2) 0.63931(18) 0.19254(19)
H7 H -0.0508 0.609 0.2009
C12 C 0.0411(2) 0.64720(17) 0.07287(19)
H8 H -0.0671 0.6223 0.0003
C13 C 0.1874(2) 0.69113(15) 0.05732(17)
H9 H 0.1805 0.697 -0.0249
C14 C 0.5757(2) 0.87907(15) 0.47386(16)
H10 H 0.6964 0.9072 0.5357
H11 H 0.5491 0.9446 0.422
H12 H 0.5063 0.8594 0.5188
O2 O 0.56222(14) 0.44686(10) 0.38456(10)
H13 H 0.517(3) 0.393(2) 0.428(2)
C15 C 0.54512(19) 0.38072(14) 0.27445(14)
C16 C 0.6999(2) 0.34112(14) 0.30187(14)
C17 C 0.8680(2) 0.41373(15) 0.35043(15)
H14 H 0.9007 0.5002 0.3741
C18 C 0.9892(2) 0.35778(17) 0.36413(16)
H15 H 1.1057 0.4063 0.3983
C19 C 0.9400(2) 0.23113(17) 0.32794(15)
H16 H 1.0237 0.1943 0.3373
C20 C 0.7712(2) 0.15769(15) 0.27851(15)
H17 H 0.7383 0.0714 0.2534
C21 C 0.65092(19) 0.21358(14) 0.26663(14)
C22 C 0.46619(19) 0.16093(14) 0.22242(14)
C23 C 0.40367(19) 0.25655(14) 0.23037(14)
C24 C 0.2342(2) 0.23169(15) 0.20002(14)
H18 H 0.1919 0.2965 0.206
C25 C 0.1268(2) 0.10947(16) 0.16042(15)
H19 H 0.0102 0.0908 0.1397
C26 C 0.1883(2) 0.01463(15) 0.15092(15)
H20 H 0.1131 -0.068 0.1232
C27 C 0.3587(2) 0.03931(14) 0.18158(14)
H21 H 0.4007 -0.0255 0.1748
C28 C 0.5166(2) 0.46634(14) 0.17200(15)
H22 H 0.4124 0.4858 0.1523
H23 H 0.5058 0.4252 0.0953
H24 H 0.6134 0.543 0.2027
O2 O 0.43778(14) 0.55314(10) 0.61544(10)
H13 H 0.483(3) 0.607(2) 0.572(2)
C15 C 0.45488(19) 0.61928(14) 0.72555(14)
C16 C 0.3001(2) 0.65888(14) 0.69813(14)
C17 C 0.1320(2) 0.58627(15) 0.64957(15)
H14 H 0.0993 0.4998 0.6259
C18 C 0.0108(2) 0.64222(17) 0.63587(16)
H15 H -0.1057 0.5937 0.6017
C19 C 0.0600(2) 0.76887(17) 0.67206(15)
H16 H -0.0237 0.8057 0.6627
C20 C 0.2288(2) 0.84231(15) 0.72149(15)
H17 H 0.2617 0.9286 0.7466
C21 C 0.34908(19) 0.78642(14) 0.73337(14)
C22 C 0.53381(19) 0.83907(14) 0.77758(14)
C23 C 0.59633(19) 0.74345(14) 0.76963(14)
C24 C 0.7658(2) 0.76831(15) 0.79998(14)
H18 H 0.8081 0.7035 0.794
C25 C 0.8732(2) 0.89053(16) 0.83958(15)
H19 H 0.9898 0.9092 0.8603
C26 C 0.8117(2) 0.98537(15) 0.84908(15)
H20 H 0.8869 1.068 0.8768
C27 C 0.6413(2) 0.96069(14) 0.81842(14)
H21 H 0.5993 1.0255 0.8252
C28 C 0.4834(2) 0.53366(14) 0.82800(15)
H22 H 0.5876 0.5142 0.8477
H23 H 0.4942 0.5748 0.9047
H24 H 0.3866 0.457 0.7973

#END
