./LAFKAE02_from_POSCAR.cif_generated_by_CrystalShift
_symmetry_cell_setting triclinic
_symmetry_space_group_name_H-M 'P 1'
loop_
_symmetry_equiv_pos_site_id
_symmetry_equiv_pos_as_xyz
1 x,y,z
_cell_length_a 8.738000
_cell_length_b 11.457100
_cell_length_c 11.709700
_cell_angle_alpha 90.952000
_cell_angle_beta 103.462000
_cell_angle_gamma 106.225000
_cell_volume 1090.473140
loop_
_atom_site_label
_atom_site_type_symbol
_atom_site_fract_x
_atom_site_fract_y
_atom_site_fract_z
H1 H 0.363100 0.445000 0.801300
H2 H 0.567000 0.425600 0.614000
H3 H 0.556800 0.502500 0.854600
H4 H 0.546500 1.006700 0.828100
H5 H 0.831000 1.050800 0.898300
H6 H 0.263300 0.186500 0.501500
H7 H 0.958300 0.899600 0.895800
H8 H 0.025500 0.124700 0.570200
H9 H 0.804400 0.698700 0.827700
H10 H 0.041300 0.117600 0.769500
H11 H 0.223500 0.911300 0.732300
H12 H 0.299300 0.171600 0.908900
H13 H -0.043600 0.788600 0.648600
H14 H -0.096600 0.583600 0.596100
H15 H 0.116600 0.492200 0.631700
H16 H 0.470000 0.593400 0.580400
H17 H 0.934900 0.355200 0.744500
H18 H 0.636900 0.555000 0.198700
H19 H 1.061100 0.381200 0.947900
H20 H 0.569900 0.444600 0.097600
H21 H 0.906300 0.327300 1.084300
H22 H 0.443200 0.497500 0.145400
H23 H 0.622500 0.247700 1.023100
H24 H 0.453500 -0.006700 0.171900
H25 H 0.549800 0.153700 0.487600
H26 H 0.625900 0.097300 0.603800
H27 H 0.740800 0.207400 0.552400
H28 H 0.169000 -0.050800 0.101700
H29 H 0.433000 0.574400 0.386000
H30 H 0.041700 0.100400 0.104200
H31 H 0.195600 0.301300 0.172300
H32 H 0.776500 0.088700 0.267700
H33 H 0.736700 0.813500 0.498500
H34 H 1.043600 0.211400 0.351400
H35 H 0.974500 0.875300 0.429800
H36 H 1.096600 0.416400 0.403900
H37 H 0.958700 0.882400 0.230500
H38 H 0.883400 0.507800 0.368300
H39 H 0.700700 0.828400 0.091100
H40 H 0.530000 0.406600 0.419600
H41 H 0.259200 0.792600 0.447600
H42 H 0.374100 0.902700 0.396200
H43 H 0.450200 0.846300 0.512400
H44 H 0.065100 0.644800 0.255500
H45 H 0.377500 0.752300 -0.023100
H46 H -0.061100 0.618800 0.052100
H47 H 0.093700 0.672700 -0.084300
H48 H 0.430100 0.555400 0.902400
C49 C 0.314400 0.729460 0.033320
C50 C 0.055100 0.651240 0.078500
C51 C 0.369800 0.827610 0.435830
C52 C 0.129500 0.665820 0.199690
C53 C 0.298680 0.711550 0.235950
C54 C 0.391630 0.743050 0.152830
C55 C 0.590170 0.263680 0.639920
C56 C 0.566000 0.787060 0.214580
C57 C 0.544100 0.388510 0.261060
C58 C 0.702030 0.351800 0.295190
C59 C 0.861100 0.423230 0.347310
C60 C 0.707200 0.824660 0.172990
C61 C 0.987100 0.368700 0.368160
C62 C 0.860300 0.857060 0.256600
C63 C 0.955100 0.246500 0.337580
C64 C 0.869800 0.852700 0.375300
C65 C 0.797600 0.173410 0.287330
C66 C 0.729500 0.816040 0.416400
C67 C 0.670360 0.227730 0.266250
C68 C 0.493800 0.174720 0.215960
C69 C 0.417160 0.266550 0.214890
C70 C 0.248500 0.239220 0.172980
C71 C 0.578840 0.783240 0.335810
C72 C 0.157800 0.120100 0.132090
C73 C 0.409830 0.736320 0.360080
C74 C 0.233300 0.030170 0.131240
C75 C 0.451000 0.520440 0.832690
C76 C 0.401500 0.055840 0.172770
C77 C 0.630200 0.172390 0.564170
C78 C 0.549000 0.479560 0.167310
C79 C 0.685600 0.270540 0.966680
C80 C 0.853200 0.317010 1.002590
C81 C 0.944900 0.348760 0.921500
C82 C 0.421160 0.216760 0.664190
C83 C 0.870500 0.334180 0.800310
C84 C 0.455900 0.611490 0.738940
C85 C 0.297970 0.648200 0.704810
C86 C 0.138900 0.576770 0.652690
C87 C 0.701320 0.288450 0.764050
C88 C 0.012900 0.631300 0.631840
C89 C 0.608370 0.256950 0.847170
C90 C 0.044900 0.753500 0.662420
C91 C 0.434000 0.212940 0.785420
C92 C 0.202400 0.826590 0.712670
C93 C 0.292800 0.175340 0.827010
C94 C 0.329640 0.772270 0.733750
C95 C 0.506200 0.825280 0.784040
C96 C 0.582840 0.733450 0.785110
C97 C 0.751500 0.760780 0.827020
C98 C 0.139700 0.142940 0.743400
C99 C 0.842200 0.879900 0.867910
C100 C 0.130200 0.147300 0.624700
C101 C 0.766700 0.969830 0.868760
C102 C 0.270500 0.183960 0.583600
C103 C 0.598500 0.944160 0.827230
C104 C 0.146800 0.682990 -0.002590
O105 O 0.511280 0.445560 0.358990
O106 O 0.392880 0.627300 0.421150
O107 O 0.488720 0.554440 0.641010
O108 O 0.607120 0.372700 0.578850

#END
