./LAFKIM_from_POSCAR.cif_generated_by_CrystalShift
_symmetry_cell_setting triclinic
_symmetry_space_group_name_H-M 'P 1'
loop_
_symmetry_equiv_pos_site_id
_symmetry_equiv_pos_as_xyz
1 x,y,z
_cell_length_a 15.679000
_cell_length_b 8.567000
_cell_length_c 23.884000
_cell_angle_alpha 90.000000
_cell_angle_beta 92.600000
_cell_angle_gamma 90.000000
_cell_volume 3204.843918
loop_
_atom_site_label
_atom_site_type_symbol
_atom_site_fract_x
_atom_site_fract_y
_atom_site_fract_z
H1 H 0.242900 0.842200 0.654700
H2 H 0.381800 1.185500 0.617600
H3 H 0.475600 0.929700 0.580600
H4 H 0.503100 0.701200 0.560000
H5 H 0.398900 0.503000 0.519500
H6 H 0.256800 0.591200 0.514800
H7 H 0.202000 0.994000 0.475000
H8 H 0.146900 1.386500 0.615700
H9 H 0.257100 0.342200 0.845300
H10 H 0.258500 0.250800 0.761100
H11 H 0.354100 0.083600 0.718900
H12 H 0.480200 0.014600 0.784400
H13 H 0.553600 0.039400 0.868200
H14 H 0.241500 0.750800 0.738900
H15 H 0.217000 -0.040000 0.298000
H16 H 0.548000 0.135400 0.981900
H17 H 0.446200 0.308000 1.005000
H18 H 0.395300 0.661900 0.924400
H19 H 0.353100 0.886500 0.884300
H20 H 0.195100 0.923400 0.867100
H21 H 0.118200 0.685500 0.882400
H22 H 0.024400 0.429700 0.919400
H23 H -0.003100 0.201200 0.940000
H24 H 0.101100 0.003000 0.980500
H25 H 0.243200 0.091200 0.985200
H26 H 0.387600 -0.184900 0.236600
H27 H 0.443600 -0.421200 0.279300
H28 H 0.456500 -0.422600 0.380300
H29 H 0.412900 -0.204500 0.436800
H30 H 0.358300 0.062000 0.474700
H31 H 0.299100 0.306500 0.497400
H32 H 0.242300 0.472000 0.414700
H33 H 0.248900 0.371800 0.318600
H34 H 0.259400 0.145300 0.184000
H35 H 0.302300 0.280400 0.117800
H36 H 0.444400 0.423400 0.114800
H37 H 0.565700 0.506800 0.172000
H38 H 0.657100 0.469900 0.259700
H39 H 0.601700 0.321300 0.333000
H40 H 0.474900 0.187100 0.334100
H41 H 0.298000 0.494000 1.025000
H42 H 0.104700 1.161900 0.575600
H43 H 0.757100 0.157800 0.345300
H44 H 0.758500 0.249200 0.261100
H45 H 0.854100 0.416400 0.218900
H46 H 0.980200 0.485400 0.284400
H47 H 1.053600 0.460600 0.368200
H48 H 1.048000 0.364600 0.481900
H49 H 0.946200 0.192000 0.505000
H50 H 0.895300 -0.161900 0.424400
H51 H 0.853100 -0.386500 0.384300
H52 H 0.695100 -0.423400 0.367100
H53 H 0.618200 -0.185500 0.382400
H54 H 0.145900 0.583600 0.781100
H55 H 0.283000 0.460000 0.202000
H56 H 0.524400 0.070300 0.419400
H57 H 0.496900 0.298800 0.440000
H58 H 0.601100 0.497000 0.480500
H59 H 0.743200 0.408800 0.485200
H60 H 0.798000 0.006000 0.525000
H61 H 0.053800 0.808000 0.495000
H62 H 0.742900 0.657800 0.154700
H63 H 0.741500 0.749200 0.238900
H64 H 0.645900 0.916400 0.281100
H65 H 0.519800 0.985400 0.215600
H66 H 0.112400 0.315100 0.263400
H67 H 0.056400 0.078800 0.220700
H68 H 0.043500 0.077400 0.119700
H69 H 0.087100 0.295500 0.063200
H70 H 0.141700 0.562000 0.025300
H71 H 0.200900 0.806500 0.002600
H72 H 0.257700 0.972000 0.085300
H73 H 0.251100 0.871800 0.181400
H74 H 0.240600 0.645300 0.316000
H75 H 0.197700 0.780400 0.382200
H76 H 0.055600 0.923400 0.385200
H77 H -0.065700 1.006800 0.328000
H78 H -0.157100 0.969900 0.240300
H79 H -0.101700 0.821300 0.167000
H80 H 0.025100 0.687100 0.165900
H81 H 0.446400 0.960600 0.131800
H82 H 0.452000 0.864600 0.018100
H83 H 0.553800 0.692000 -0.005000
H84 H 0.604700 0.338100 0.075600
H85 H 0.646900 0.113500 0.115700
H86 H 0.804900 0.076600 0.132900
H87 H 0.881800 0.314500 0.117600
H88 H 0.975600 0.570300 0.080600
H89 H 1.003100 0.798800 0.060000
H90 H 0.898900 0.997000 0.019500
H91 H 0.756800 0.908800 0.014800
H92 H 0.702000 0.506000 -0.025000
H93 H -0.048000 0.635400 0.518100
H94 H 0.019800 0.514600 0.715600
H95 H 0.783000 1.040000 0.702000
H96 H 0.974900 0.312900 0.834100
H97 H 1.101700 0.178700 0.833000
H98 H 1.157100 0.030100 0.759700
H99 H 1.065700 -0.006800 0.672000
H100 H 0.944400 0.076600 0.614800
H101 H 0.802300 0.219600 0.617800
H102 H 0.759400 0.354700 0.684000
H103 H 0.748900 0.128200 0.818600
H104 H 0.742300 0.028000 0.914700
H105 H 0.799100 0.193500 0.997400
H106 H 0.612400 1.184900 0.763400
H107 H 0.556400 1.421200 0.720700
H108 H 0.543500 1.422600 0.619700
H109 H 0.587100 1.204500 0.563200
H110 H 0.641700 0.938000 0.525300
H111 H 0.700900 0.693500 0.502600
H112 H 0.757700 0.528000 0.585300
H113 H 0.751100 0.628200 0.681400
H114 H 0.740600 0.854700 0.816000
H115 H 0.697700 0.719600 0.882200
H116 H 0.555600 0.576600 0.885200
H117 H 0.434300 0.493200 0.828000
H118 H 0.342900 0.530100 0.740300
H119 H 0.398300 0.678700 0.667000
H120 H 0.525100 0.812900 0.665900
H121 H 0.858300 0.438000 0.974700
H122 H 0.912900 0.704500 0.936800
H123 H 0.956500 0.922600 0.880300
H124 H 0.943600 0.921200 0.779300
H125 H 0.887600 0.684900 0.736600
H126 H 0.717000 0.540000 0.798000
H127 H -0.053600 0.539400 0.631800
H128 H 0.304900 1.423400 0.632900
C129 C 0.795200 0.226500 0.950100
C130 C 0.765900 0.135500 0.905500
C131 C 0.774400 0.186100 0.850500
C132 C 0.810900 0.330100 0.841800
C133 C 0.819200 0.417500 0.786600
C134 C 0.840500 0.422300 0.886600
C135 C 0.875700 0.568000 0.864800
C136 C 0.856800 0.325200 0.738900
C137 C 0.811200 0.313600 0.688700
C138 C 0.842300 0.227700 0.643500
C139 C 0.917300 0.150400 0.648800
C140 C 0.967500 0.157600 0.699500
C141 C 1.045600 0.077000 0.705700
C142 C 1.094800 0.084800 0.754200
C143 C 1.067000 0.176300 0.798800
C144 C 0.991400 0.254600 0.794800
C145 C 0.937600 0.247400 0.745200
C146 C 0.909700 0.697700 0.892400
C147 C 0.936900 0.822700 0.860400
C148 C 0.931000 0.817700 0.802700
C149 C 0.896300 0.687400 0.775200
C150 C 0.868600 0.563200 0.806400
C151 C 0.562400 0.747400 0.754800
C152 C 0.508600 0.754600 0.705200
C153 C 0.433000 0.676300 0.701200
C154 C 0.405200 0.584800 0.745800
C155 C 0.454400 0.577000 0.794300
C156 C 0.532500 0.657600 0.800500
C157 C 0.582700 0.650400 0.851200
C158 C 0.657700 0.727700 0.856500
C159 C 0.688800 0.813600 0.811300
C160 C 0.643200 0.825200 0.761100
C161 C 0.778900 0.688600 0.045200
C162 C 0.800200 0.836900 0.027800
C163 C 0.885700 0.882100 0.031400
C164 C 0.947800 0.781400 0.051000
C165 C 0.927000 0.631100 0.069100
C166 C 0.842000 0.587000 0.066800
C167 C 0.800300 0.441100 0.083400
C168 C 0.833800 0.304900 0.107400
C169 C 0.779200 0.184600 0.119000
C170 C 0.693000 0.196000 0.106000
C171 C 0.658500 0.332200 0.081900
C172 C 0.713100 0.453900 0.071300
C173 C 0.692000 0.609400 0.042700
C174 C 0.680800 0.917500 0.713400
C175 C 0.689100 0.830100 0.658200
C176 C 0.620700 0.705400 0.067600
C177 C 0.550300 0.743800 0.034600
C178 C 0.484000 0.838700 0.055600
C179 C 0.490500 0.894600 0.108000
C180 C 0.561300 0.858200 0.143800
C181 C 0.568700 0.917800 0.198900
C182 C 0.635400 0.880300 0.234400
C183 C 0.699600 0.779300 0.216100
C184 C 0.696000 0.723100 0.162400
C185 C 0.627800 0.760500 0.124300
C186 C 0.725600 0.686100 0.649500
C187 C 0.734100 0.635500 0.594500
C188 C 0.704800 0.726500 0.549900
C189 C 0.666700 0.871000 0.558800
C190 C 0.659500 0.922300 0.613400
C191 C 0.624300 1.068000 0.635200
C192 C 0.590300 1.197700 0.607600
C193 C 0.563100 1.322700 0.639600
C194 C 0.569000 1.317700 0.697300
C195 C 0.603700 1.187400 0.724800
C196 C 0.631400 1.063200 0.693600
C197 C 0.062400 0.752600 0.254800
C198 C 0.008600 0.745400 0.205200
C199 C -0.067000 0.823700 0.201200
C200 C -0.094800 0.915200 0.245800
C201 C 0.721100 0.188600 0.454800
C202 C 0.699800 0.336900 0.472200
C203 C 0.614300 0.382100 0.468600
C204 C 0.552200 0.281400 0.449000
C205 C 0.573000 0.131100 0.430900
C206 C 0.658000 0.087000 0.433200
C207 C 0.699700 -0.058900 0.416600
C208 C 0.666200 -0.195100 0.392600
C209 C 0.720800 -0.315400 0.381000
C210 C 0.807000 -0.304000 0.394000
C211 C 0.841500 -0.167800 0.418100
C212 C 0.786900 -0.046100 0.428700
C213 C 0.808000 0.109400 0.457300
C214 C -0.045600 0.923000 0.294300
C215 C 0.032500 0.842400 0.300500
C216 C 0.879300 0.205400 0.432400
C217 C 0.949700 0.243800 0.465400
C218 C 1.016000 0.338700 0.444400
C219 C 1.009500 0.394600 0.392000
C220 C 0.938700 0.358200 0.356200
C221 C 0.931300 0.417800 0.301100
C222 C 0.864600 0.380300 0.265600
C223 C 0.800400 0.279300 0.283900
C224 C 0.804000 0.223100 0.337600
C225 C 0.872200 0.260500 0.375700
C226 C 0.082700 0.849600 0.351200
C227 C 0.157700 0.772300 0.356500
C228 C 0.188800 0.686400 0.311300
C229 C 0.143200 0.674800 0.261100
C230 C 0.180800 0.582500 0.213400
C231 C 0.189100 0.669900 0.158200
C232 C 0.225600 0.813900 0.149500
C233 C 0.234100 0.864500 0.094500
C234 C 0.204800 0.773500 0.049900
C235 C 0.166700 0.629000 0.058800
C236 C 0.159500 0.577700 0.113400
C237 C 0.124300 0.432000 0.135200
C238 C 0.090300 0.302300 0.107600
C239 C 0.063100 0.177300 0.139600
C240 C 0.069000 0.182300 0.197300
C241 C 0.221100 0.311400 0.954800
C242 C 0.199800 0.163100 0.972200
C243 C 0.114300 0.117900 0.968600
C244 C 0.052200 0.218600 0.949000
C245 C 0.073000 0.368900 0.930900
C246 C 0.158000 0.413000 0.933200
C247 C 0.199700 0.558900 0.916600
C248 C 0.166200 0.695100 0.892600
C249 C 0.220800 0.815400 0.881000
C250 C 0.307000 0.804000 0.894000
C251 C 0.341500 0.667800 0.918100
C252 C 0.286900 0.546100 0.928700
C253 C 0.308000 0.390600 0.957300
C254 C 0.103700 0.312600 0.224800
C255 C 0.131400 0.436800 0.193600
C256 C 0.379300 0.294600 0.932400
C257 C 0.449700 0.256200 0.965400
C258 C 0.516000 0.161300 0.944400
C259 C 0.509500 0.105400 0.892000
C260 C 0.438700 0.141800 0.856200
C261 C 0.431300 0.082200 0.801100
C262 C 0.364600 0.119700 0.765600
C263 C 0.300400 0.220700 0.783900
C264 C 0.304000 0.276900 0.837600
C265 C 0.372200 0.239500 0.875700
C266 C 0.437600 0.252600 0.245200
C267 C 0.491400 0.245400 0.294800
C268 C 0.567000 0.323700 0.298800
C269 C 0.594800 0.415200 0.254200
C270 C 0.545600 0.423000 0.205700
C271 C 0.467500 0.342400 0.199500
C272 C 0.417300 0.349600 0.148800
C273 C 0.342300 0.272300 0.143500
C274 C 0.311200 0.186400 0.188700
C275 C 0.356800 0.174800 0.238900
C276 C 0.319200 0.082500 0.286600
C277 C 0.310900 0.169900 0.341800
C278 C 0.274400 0.313900 0.350500
C279 C 0.265900 0.364500 0.405500
C280 C 0.295200 0.273500 0.450100
C281 C 0.278900 0.811400 0.545200
C282 C 0.300200 0.663100 0.527800
C283 C 0.385700 0.617900 0.531400
C284 C 0.447800 0.718600 0.551000
C285 C 0.427000 0.868900 0.569100
C286 C 0.342000 0.913000 0.566800
C287 C 0.300300 1.058900 0.583400
C288 C 0.333800 1.195100 0.607400
C289 C 0.279200 1.315400 0.619000
C290 C 0.193000 1.304000 0.606000
C291 C 0.158500 1.167800 0.581900
C292 C 0.213100 1.046100 0.571300
C293 C 0.192000 0.890600 0.542700
C294 C 0.333300 0.129000 0.441200
C295 C 0.340500 0.077700 0.386600
C296 C 0.120700 0.794600 0.567600
C297 C 0.050300 0.756200 0.534600
C298 C -0.016000 0.661300 0.555600
C299 C -0.009500 0.605400 0.608000
C300 C 0.061300 0.641800 0.643800
C301 C 0.068700 0.582200 0.698900
C302 C 0.135400 0.619700 0.734400
C303 C 0.199600 0.720700 0.716100
C304 C 0.196000 0.776900 0.662400
C305 C 0.127800 0.739500 0.624300
C306 C 0.375700 -0.068000 0.364800
C307 C 0.409700 -0.197700 0.392400
C308 C 0.436900 -0.322700 0.360400
C309 C 0.431000 -0.317700 0.302700
C310 C 0.396300 -0.187400 0.275200
C311 C 0.833300 0.371000 0.941200
C312 C 0.368600 -0.063200 0.306400
O313 O 0.334500 0.419700 1.015000
O314 O 0.834500 0.080300 0.515000
O315 O 0.665500 0.580300 -0.015000
O316 O 0.735100 0.464200 0.766500
O317 O 0.764900 0.964200 0.733500
O318 O 0.264900 0.535800 0.233500
O319 O 0.235100 0.035800 0.266500
O320 O 0.165500 0.919700 0.485000

#END
