
#######################################################################
#
#                 Cambridge Crystallographic Data Centre
#                                CCDC 
#
#######################################################################
#
# If this CIF has been generated from an entry in the Cambridge 
# Structural Database, then it will include bibliographic, chemical, 
# crystal, experimental, refinement or atomic coordinate data resulting 
# from the CCDC's data processing and validation procedures.
#
#######################################################################

data_LAFKEL
_symmetry_cell_setting           monoclinic
_symmetry_space_group_name_H-M   'P 21/c'
_symmetry_Int_Tables_number      14
_space_group_name_Hall           '-P 2ybc'
loop_
_symmetry_equiv_pos_site_id
_symmetry_equiv_pos_as_xyz
1 x,y,z
2 -x,1/2+y,1/2-z
3 -x,-y,-z
4 x,1/2-y,1/2+z
_cell_length_a                   15.1739(5)
_cell_length_b                   10.9792(3)
_cell_length_c                   8.28616(19)
_cell_angle_alpha                90
_cell_angle_beta                 96.222(3)
_cell_angle_gamma                90
_cell_volume                     1372.32
loop_
_atom_site_label
_atom_site_type_symbol
_atom_site_fract_x
_atom_site_fract_y
_atom_site_fract_z
O1 O 0.55791(6) 0.32020(9) 0.46193(12)
O2 O 0.97356(6) 0.36763(10) 0.68320(13)
N1 N 0.58585(7) 0.47660(11) 0.30545(14)
C1 C 0.71054(8) 0.38533(12) 0.48282(15)
C2 C 0.61891(9) 0.39782(12) 0.41066(15)
C3 C 0.88616(9) 0.36799(12) 0.62199(16)
C4 C 0.47839(9) 0.35613(13) 0.37816(17)
C5 C 0.86090(9) 0.46025(13) 0.51173(17)
H1 H 0.9027 0.5163 0.4840
C6 C 0.77426(9) 0.46909(12) 0.44331(17)
H2 H 0.7580 0.5314 0.3701
C7 C 0.73681(9) 0.29303(13) 0.59152(18)
H3 H 0.6953 0.2361 0.6180
C8 C 0.82367(9) 0.28386(13) 0.66161(18)
H4 H 0.8401 0.2216 0.7349
C9 C 0.49502(9) 0.45091(13) 0.28390(16)
C10 C 0.39797(10) 0.28781(16) 0.4101(2)
H5 H 0.4009 0.2067 0.3678
H6 H 0.3464 0.3282 0.3581
H7 H 0.3945 0.2842 0.5249
C11 C 1.00163(11) 0.28111(15) 0.8067(2)
H8 H 0.9953 0.1991 0.7634
H9 H 0.9655 0.2883 0.8959
C12 C 1.09723(10) 0.30638(16) 0.8654(2)
H10 H 1.1313 0.3056 0.7729
H11 H 1.1194 0.2412 0.9377
C13 C 0.43194(10) 0.52577(17) 0.17578(19)
H12 H 0.4430 0.6106 0.1978
H13 H 0.3723 0.5063 0.1951
H14 H 0.4397 0.5088 0.0646
C14 C 1.11250(11) 0.42633(18) 0.9531(2)
H15 H 1.0746 0.4304 1.0400
H16 H 1.0956 0.4922 0.8780
C15 C 1.20769(13) 0.4447(2) 1.0238(3)
H17 H 1.2455 0.4435 0.9381
H18 H 1.2247 0.3805 1.0995
H19 H 1.2133 0.5217 1.0787
O1 O 0.44209(6) 0.82020(9) 1.03807(12)
O2 O 0.02644(6) 0.86763(10) 0.81680(13)
N1 N 0.41415(7) 0.97660(11) 1.19455(14)
C1 C 0.28946(8) 0.88533(12) 1.01718(15)
C2 C 0.38109(9) 0.89782(12) 1.08934(15)
C3 C 0.11384(9) 0.86799(12) 0.87801(16)
C4 C 0.52161(9) 0.85613(13) 1.12184(17)
C5 C 0.13910(9) 0.96025(13) 0.98827(17)
H1 H 0.0973 1.0163 1.0160
C6 C 0.22574(9) 0.96909(12) 1.05669(17)
H2 H 0.2420 1.0314 1.1299
C7 C 0.26319(9) 0.79303(13) 0.90848(18)
H3 H 0.3047 0.7361 0.8820
C8 C 0.17633(9) 0.78386(13) 0.83839(18)
H4 H 0.1599 0.7216 0.7651
C9 C 0.50498(9) 0.95091(13) 1.21610(16)
C10 C 0.60203(10) 0.78781(16) 1.0899(2)
H5 H 0.5991 0.7067 1.1322
H6 H 0.6536 0.8282 1.1419
H7 H 0.6055 0.7842 0.9751
C11 C -0.00163(11) 0.78111(15) 0.6933(2)
H8 H 0.0047 0.6991 0.7366
H9 H 0.0345 0.7883 0.6041
C12 C -0.09723(10) 0.80638(16) 0.6346(2)
H10 H -0.1313 0.8056 0.7271
H11 H -0.1194 0.7412 0.5623
C13 C 0.56806(10) 1.02577(17) 1.32422(19)
H12 H 0.5570 1.1106 1.3022
H13 H 0.6277 1.0063 1.3049
H14 H 0.5603 1.0088 1.4354
C14 C -0.11250(11) 0.92633(18) 0.5469(2)
H15 H -0.0746 0.9304 0.4600
H16 H -0.0956 0.9922 0.6220
C15 C -0.20769(13) 0.9447(2) 0.4762(3)
H17 H -0.2455 0.9435 0.5619
H18 H -0.2247 0.8805 0.4005
H19 H -0.2133 1.0217 0.4213
O1 O 0.44209(6) 0.67980(9) 0.53807(12)
O2 O 0.02644(6) 0.63237(10) 0.31680(13)
N1 N 0.41415(7) 0.52340(11) 0.69455(14)
C1 C 0.28946(8) 0.61467(12) 0.51718(15)
C2 C 0.38109(9) 0.60218(12) 0.58934(15)
C3 C 0.11384(9) 0.63201(12) 0.37801(16)
C4 C 0.52161(9) 0.64387(13) 0.62184(17)
C5 C 0.13910(9) 0.53975(13) 0.48827(17)
H1 H 0.0973 0.4837 0.5160
C6 C 0.22574(9) 0.53091(12) 0.55669(17)
H2 H 0.2420 0.4686 0.6299
C7 C 0.26319(9) 0.70697(13) 0.40848(18)
H3 H 0.3047 0.7639 0.3820
C8 C 0.17633(9) 0.71614(13) 0.33839(18)
H4 H 0.1599 0.7784 0.2651
C9 C 0.50498(9) 0.54909(13) 0.71610(16)
C10 C 0.60203(10) 0.71219(16) 0.5899(2)
H5 H 0.5991 0.7933 0.6322
H6 H 0.6536 0.6718 0.6419
H7 H 0.6055 0.7158 0.4751
C11 C -0.00163(11) 0.71889(15) 0.1933(2)
H8 H 0.0047 0.8009 0.2366
H9 H 0.0345 0.7117 0.1041
C12 C -0.09723(10) 0.69362(16) 0.1346(2)
H10 H -0.1313 0.6944 0.2271
H11 H -0.1194 0.7588 0.0623
C13 C 0.56806(10) 0.47423(17) 0.82422(19)
H12 H 0.5570 0.3894 0.8022
H13 H 0.6277 0.4937 0.8049
H14 H 0.5603 0.4912 0.9354
C14 C -0.11250(11) 0.57367(18) 0.0469(2)
H15 H -0.0746 0.5696 -0.0400
H16 H -0.0956 0.5078 0.1220
C15 C -0.20769(13) 0.5553(2) -0.0238(3)
H17 H -0.2455 0.5565 0.0619
H18 H -0.2247 0.6195 -0.0995
H19 H -0.2133 0.4783 -0.0787
O1 O 0.55791(6) 0.17980(9) -0.03807(12)
O2 O 0.97356(6) 0.13237(10) 0.18320(13)
N1 N 0.58585(7) 0.02340(11) -0.19455(14)
C1 C 0.71054(8) 0.11467(12) -0.01718(15)
C2 C 0.61891(9) 0.10218(12) -0.08934(15)
C3 C 0.88616(9) 0.13201(12) 0.12199(16)
C4 C 0.47839(9) 0.14387(13) -0.12184(17)
C5 C 0.86090(9) 0.03975(13) 0.01173(17)
H1 H 0.9027 -0.0163 -0.0160
C6 C 0.77426(9) 0.03091(12) -0.05669(17)
H2 H 0.7580 -0.0314 -0.1299
C7 C 0.73681(9) 0.20697(13) 0.09152(18)
H3 H 0.6953 0.2639 0.1180
C8 C 0.82367(9) 0.21614(13) 0.16161(18)
H4 H 0.8401 0.2784 0.2349
C9 C 0.49502(9) 0.04909(13) -0.21610(16)
C10 C 0.39797(10) 0.21219(16) -0.0899(2)
H5 H 0.4009 0.2933 -0.1322
H6 H 0.3464 0.1718 -0.1419
H7 H 0.3945 0.2158 0.0249
C11 C 1.00163(11) 0.21889(15) 0.3067(2)
H8 H 0.9953 0.3009 0.2634
H9 H 0.9655 0.2117 0.3959
C12 C 1.09723(10) 0.19362(16) 0.3654(2)
H10 H 1.1313 0.1944 0.2729
H11 H 1.1194 0.2588 0.4377
C13 C 0.43194(10) -0.02577(17) -0.32422(19)
H12 H 0.4430 -0.1106 -0.3022
H13 H 0.3723 -0.0063 -0.3049
H14 H 0.4397 -0.0088 -0.4354
C14 C 1.11250(11) 0.07367(18) 0.4531(2)
H15 H 1.0746 0.0696 0.5400
H16 H 1.0956 0.0078 0.3780
C15 C 1.20769(13) 0.0553(2) 0.5238(3)
H17 H 1.2455 0.0565 0.4381
H18 H 1.2247 0.1195 0.5995
H19 H 1.2133 -0.0217 0.5787

#END
