./LAFKAE_from_POSCAR.cif_generated_by_CrystalShift
_symmetry_cell_setting triclinic
_symmetry_space_group_name_H-M 'P 1'
loop_
_symmetry_equiv_pos_site_id
_symmetry_equiv_pos_as_xyz
1 x,y,z
_cell_length_a 8.779000
_cell_length_b 11.570000
_cell_length_c 11.747000
_cell_angle_alpha 91.197000
_cell_angle_beta 104.345000
_cell_angle_gamma 105.848000
_cell_volume 1107.006987
loop_
_atom_site_label
_atom_site_type_symbol
_atom_site_fract_x
_atom_site_fract_y
_atom_site_fract_z
H1 H 0.767900 0.787200 0.461100
H2 H 0.569100 0.660600 -0.100100
H3 H 0.887200 0.751600 -0.037100
H4 H 1.191400 0.826000 0.082800
H5 H 1.462000 0.882900 0.225000
H6 H 1.478800 0.875200 0.426700
H7 H 1.244900 0.813100 0.501700
H8 H 0.563600 0.635000 0.259600
H9 H 0.232100 0.212800 0.538900
H10 H 0.104100 0.093000 0.602700
H11 H 0.047000 0.158200 0.474900
H12 H 0.068400 0.434000 0.616200
H13 H 0.436400 0.365000 0.740400
H14 H 0.895900 0.907000 0.397300
H15 H 0.561400 0.379700 0.946800
H16 H -0.309100 0.299700 0.171800
H17 H -0.460100 0.096300 0.108600
H18 H -0.337400 -0.069400 0.106400
H19 H -0.039500 -0.017900 0.180800
H20 H 0.281800 0.075800 0.263700
H21 H 0.545900 0.212600 0.349700
H22 H 0.601000 0.422200 0.400400
H23 H 0.379200 0.512500 0.366300
H24 H 0.025500 0.402000 0.423100
H25 H 0.060200 0.443900 0.095900
H26 H -0.074000 0.495500 0.139600
H27 H 0.126300 0.551500 0.201000
H28 H 0.430900 0.339400 1.100100
H29 H 0.112800 0.248400 1.037100
H30 H -0.191400 0.174000 0.917200
H31 H -0.462000 0.117100 0.775000
H32 H -0.478800 0.124800 0.573300
H33 H -0.244900 0.186900 0.498300
H34 H 0.931600 0.566000 0.383800
H35 H 0.873700 0.448500 0.799000
H36 H 1.074000 0.504500 0.860400
H37 H 0.939800 0.556100 0.904100
H38 H 0.974500 0.598000 0.576900
H39 H 0.620800 0.487500 0.633700
H40 H 0.399000 0.577800 0.599600
H41 H 0.953000 0.841800 0.525100
H42 H 0.454100 0.787400 0.650300
H43 H 1.309100 0.700300 0.828200
H44 H 1.460100 0.903700 0.891400
H45 H 1.337400 1.069400 0.893600
H46 H 1.039500 1.017900 0.819200
H47 H 0.718200 0.924200 0.736300
H48 H 0.438600 0.620300 0.053200
C49 C 0.958600 0.613000 0.740800
C50 C 0.799100 0.647000 0.706200
C51 C 0.642500 0.575600 0.655700
C52 C 0.513900 0.629000 0.635000
C53 C 0.547100 0.750800 0.665000
C54 C 0.703200 0.824000 0.712800
C55 C -0.085600 0.216000 0.664800
C56 C -0.233800 0.184200 0.585000
C57 C -0.368000 0.149200 0.630700
C58 C -0.359500 0.143800 0.748200
C59 C -0.203500 0.176700 0.830400
C60 C -0.066300 0.214400 0.787100
C61 C 0.106500 0.258300 0.844400
C62 C 0.185800 0.271600 0.964000
C63 C 0.352000 0.318200 1.001000
C64 C 0.439500 0.347800 0.918800
C65 C 0.365400 0.334200 0.797100
C66 C 0.191800 0.287300 0.760300
C67 C 0.077900 0.261600 0.638300
C68 C 0.830400 0.770300 0.734400
C69 C 0.115400 0.171000 0.561200
C70 C 1.003200 0.823500 0.782900
C71 C 1.094100 0.942000 0.824000
C72 C 1.261300 0.970400 0.864800
C73 C 1.337900 0.881200 0.863900
C74 C 1.250600 0.763500 0.825800
C75 C 1.082600 0.733900 0.785200
C76 C 0.038400 0.475400 0.165400
C77 C 0.041400 0.387000 0.259200
C78 C 0.200900 0.353000 0.293800
C79 C 0.357500 0.424400 0.344300
C80 C 0.486100 0.371000 0.365000
C81 C 0.452900 0.249200 0.335000
C82 C 1.085600 0.784000 0.335200
C83 C 1.233800 0.815800 0.415000
C84 C 1.368000 0.850800 0.369300
C85 C 1.359500 0.856200 0.251800
C86 C 1.203500 0.823300 0.169600
C87 C 1.066300 0.785600 0.212900
C88 C 0.893500 0.741700 0.155600
C89 C 0.814200 0.728400 0.036000
C90 C 0.648000 0.681800 -0.001000
C91 C 0.560500 0.652200 0.081200
C92 C 0.634600 0.665800 0.202900
C93 C 0.808200 0.712700 0.239700
C94 C 0.922100 0.738400 0.361700
C95 C 0.296800 0.176000 0.287200
C96 C 0.884600 0.829000 0.438800
C97 C 0.169600 0.229700 0.265600
C98 C -0.003200 0.176500 0.217100
C99 C -0.094100 0.058000 0.176000
C100 C -0.261300 0.029600 0.135200
C101 C -0.337900 0.118800 0.136100
C102 C -0.250600 0.236500 0.174200
C103 C 0.961600 0.524600 0.834600
C104 C -0.082600 0.266100 0.214800
O105 O 0.989100 0.555400 0.642700
O106 O 0.010900 0.444600 0.357300
O107 O 0.091900 0.368200 0.576800
O108 O 0.908100 0.631800 0.423200

#END
