
#######################################################################
#
#                 Cambridge Crystallographic Data Centre
#                                CCDC 
#
#######################################################################
#
# If this CIF has been generated from an entry in the Cambridge 
# Structural Database, then it will include bibliographic, chemical, 
# crystal, experimental, refinement or atomic coordinate data resulting 
# from the CCDC's data processing and validation procedures.
#
#######################################################################

data_LAFLEL
_symmetry_cell_setting           orthorhombic
_symmetry_space_group_name_H-M   'P n a 21'
_symmetry_Int_Tables_number      33
_space_group_name_Hall           'P 2c -2n'
loop_
_symmetry_equiv_pos_site_id
_symmetry_equiv_pos_as_xyz
1 x,y,z
2 -x,-y,1/2+z
3 1/2+x,1/2-y,z
4 1/2-x,1/2+y,1/2+z
_cell_length_a                   7.9853(16)
_cell_length_b                   16.056(2)
_cell_length_c                   11.368(2)
_cell_angle_alpha                90
_cell_angle_beta                 90
_cell_angle_gamma                90
_cell_volume                     1457.51
loop_
_atom_site_label
_atom_site_type_symbol
_atom_site_fract_x
_atom_site_fract_y
_atom_site_fract_z
N1 N 0.2369(3) 1.04284(13) 0.07722(19)
O1 O -0.1329(2) 0.92700(11) 0.1222(2)
N2 N 0.1265(2) 0.97911(11) 0.1172(2)
O2 O 0.2045(3) 0.72285(12) 0.17113(18)
H1 H 0.2637 0.6724 0.1605
C1 C 0.2094(3) 0.89615(14) 0.1248(2)
H2 H 0.1539 0.8574 0.0708
C2 C 0.2347(3) 1.09570(16) 0.2817(2)
H3 H 0.1531 1.0571 0.3025
C3 C 0.2058(3) 0.86022(15) 0.2479(2)
H4 H 0.2634 0.8979 0.3008
H5 H 0.0904 0.8560 0.2739
C4 C 0.3007(3) 1.09561(15) 0.1682(2)
C5 C 0.2868(3) 0.77516(15) 0.2553(2)
H6 H 0.4055 0.7800 0.2346
C6 C -0.0413(3) 0.98727(15) 0.1040(2)
C7 C 0.3615(4) 0.99530(17) 0.0060(2)
H7 H 0.4672 1.0262 0.0019
C8 C 0.4233(3) 1.15366(16) 0.1405(3)
H8 H 0.4681 1.1547 0.0649
C9 C 0.2904(4) 1.15328(17) 0.3636(3)
H9 H 0.2446 1.1531 0.4389
C10 C 0.2712(4) 0.73857(19) 0.3783(3)
H10 H 0.3179 0.6835 0.3791
H11 H 0.1553 0.7361 0.4002
H12 H 0.3308 0.7731 0.4331
C11 C 0.2952(4) 0.9795(2) -0.1171(2)
H13 H 0.2815 1.0316 -0.1573
H14 H 0.1891 0.9516 -0.1122
H15 H 0.3731 0.9452 -0.1595
C12 C -0.1073(4) 1.07159(17) 0.0726(3)
H16 H -0.2249 1.0678 0.0561
H17 H -0.0497 1.0920 0.0043
H18 H -0.0895 1.1091 0.1371
C13 C 0.4119(4) 1.21069(18) 0.3359(3)
H19 H 0.4482 1.2494 0.3912
C14 C 0.4793(4) 1.20948(17) 0.2227(3)
H20 H 0.5633 1.2470 0.2027
C15 C 0.3856(4) 0.91552(17) 0.0786(3)
H21 H 0.4272 0.8704 0.0299
H22 H 0.4632 0.9247 0.1430
N1 N 0.7631(3) -0.04284(13) 0.57722(19)
O1 O 1.1329(2) 0.07300(11) 0.6222(2)
N2 N 0.8735(2) 0.02089(11) 0.6172(2)
O2 O 0.7955(3) 0.27715(12) 0.67113(18)
H1 H 0.7363 0.3276 0.6605
C1 C 0.7906(3) 0.10385(14) 0.6248(2)
H2 H 0.8461 0.1426 0.5708
C2 C 0.7653(3) -0.09570(16) 0.7817(2)
H3 H 0.8469 -0.0571 0.8025
C3 C 0.7942(3) 0.13978(15) 0.7479(2)
H4 H 0.7366 0.1021 0.8008
H5 H 0.9096 0.1440 0.7739
C4 C 0.6993(3) -0.09561(15) 0.6682(2)
C5 C 0.7132(3) 0.22484(15) 0.7553(2)
H6 H 0.5945 0.2200 0.7346
C6 C 1.0413(3) 0.01273(15) 0.6040(2)
C7 C 0.6385(4) 0.00470(17) 0.5060(2)
H7 H 0.5328 -0.0262 0.5019
C8 C 0.5767(3) -0.15366(16) 0.6405(3)
H8 H 0.5319 -0.1547 0.5649
C9 C 0.7096(4) -0.15328(17) 0.8636(3)
H9 H 0.7554 -0.1531 0.9389
C10 C 0.7288(4) 0.26143(19) 0.8783(3)
H10 H 0.6821 0.3165 0.8791
H11 H 0.8447 0.2639 0.9002
H12 H 0.6692 0.2269 0.9331
C11 C 0.7048(4) 0.0205(2) 0.3829(2)
H13 H 0.7185 -0.0316 0.3427
H14 H 0.8109 0.0484 0.3878
H15 H 0.6269 0.0548 0.3405
C12 C 1.1073(4) -0.07159(17) 0.5726(3)
H16 H 1.2249 -0.0678 0.5561
H17 H 1.0497 -0.0920 0.5043
H18 H 1.0895 -0.1091 0.6371
C13 C 0.5881(4) -0.21069(18) 0.8359(3)
H19 H 0.5518 -0.2494 0.8912
C14 C 0.5207(4) -0.20948(17) 0.7227(3)
H20 H 0.4367 -0.2470 0.7027
C15 C 0.6144(4) 0.08448(17) 0.5786(3)
H21 H 0.5728 0.1296 0.5299
H22 H 0.5368 0.0753 0.6430
N1 N 0.7369(3) 0.45716(13) 0.07722(19)
O1 O 0.3671(2) 0.57300(11) 0.1222(2)
N2 N 0.6265(2) 0.52089(11) 0.1172(2)
O2 O 0.7045(3) 0.77715(12) 0.17113(18)
H1 H 0.7637 0.8276 0.1605
C1 C 0.7094(3) 0.60385(14) 0.1248(2)
H2 H 0.6539 0.6426 0.0708
C2 C 0.7347(3) 0.40430(16) 0.2817(2)
H3 H 0.6531 0.4429 0.3025
C3 C 0.7058(3) 0.63978(15) 0.2479(2)
H4 H 0.7634 0.6021 0.3008
H5 H 0.5904 0.6440 0.2739
C4 C 0.8007(3) 0.40439(15) 0.1682(2)
C5 C 0.7868(3) 0.72484(15) 0.2553(2)
H6 H 0.9055 0.7200 0.2346
C6 C 0.4587(3) 0.51273(15) 0.1040(2)
C7 C 0.8615(4) 0.50470(17) 0.0060(2)
H7 H 0.9672 0.4738 0.0019
C8 C 0.9233(3) 0.34634(16) 0.1405(3)
H8 H 0.9681 0.3453 0.0649
C9 C 0.7904(4) 0.34672(17) 0.3636(3)
H9 H 0.7446 0.3469 0.4389
C10 C 0.7712(4) 0.76143(19) 0.3783(3)
H10 H 0.8179 0.8165 0.3791
H11 H 0.6553 0.7639 0.4002
H12 H 0.8308 0.7269 0.4331
C11 C 0.7952(4) 0.5205(2) -0.1171(2)
H13 H 0.7815 0.4684 -0.1573
H14 H 0.6891 0.5484 -0.1122
H15 H 0.8731 0.5548 -0.1595
C12 C 0.3927(4) 0.42841(17) 0.0726(3)
H16 H 0.2751 0.4322 0.0561
H17 H 0.4503 0.4080 0.0043
H18 H 0.4105 0.3909 0.1371
C13 C 0.9119(4) 0.28931(18) 0.3359(3)
H19 H 0.9482 0.2506 0.3912
C14 C 0.9793(4) 0.29052(17) 0.2227(3)
H20 H 1.0633 0.2530 0.2027
C15 C 0.8856(4) 0.58448(17) 0.0786(3)
H21 H 0.9272 0.6296 0.0299
H22 H 0.9632 0.5753 0.1430
N1 N 0.2631(3) 0.54284(13) 0.57722(19)
O1 O 0.6329(2) 0.42700(11) 0.6222(2)
N2 N 0.3735(2) 0.47911(11) 0.6172(2)
O2 O 0.2955(3) 0.22285(12) 0.67113(18)
H1 H 0.2363 0.1724 0.6605
C1 C 0.2906(3) 0.39615(14) 0.6248(2)
H2 H 0.3461 0.3574 0.5708
C2 C 0.2653(3) 0.59570(16) 0.7817(2)
H3 H 0.3469 0.5571 0.8025
C3 C 0.2942(3) 0.36022(15) 0.7479(2)
H4 H 0.2366 0.3979 0.8008
H5 H 0.4096 0.3560 0.7739
C4 C 0.1993(3) 0.59561(15) 0.6682(2)
C5 C 0.2132(3) 0.27516(15) 0.7553(2)
H6 H 0.0945 0.2800 0.7346
C6 C 0.5413(3) 0.48727(15) 0.6040(2)
C7 C 0.1385(4) 0.49530(17) 0.5060(2)
H7 H 0.0328 0.5262 0.5019
C8 C 0.0767(3) 0.65366(16) 0.6405(3)
H8 H 0.0319 0.6547 0.5649
C9 C 0.2096(4) 0.65328(17) 0.8636(3)
H9 H 0.2554 0.6531 0.9389
C10 C 0.2288(4) 0.23857(19) 0.8783(3)
H10 H 0.1821 0.1835 0.8791
H11 H 0.3447 0.2361 0.9002
H12 H 0.1692 0.2731 0.9331
C11 C 0.2048(4) 0.4795(2) 0.3829(2)
H13 H 0.2185 0.5316 0.3427
H14 H 0.3109 0.4516 0.3878
H15 H 0.1269 0.4452 0.3405
C12 C 0.6073(4) 0.57159(17) 0.5726(3)
H16 H 0.7249 0.5678 0.5561
H17 H 0.5497 0.5920 0.5043
H18 H 0.5895 0.6091 0.6371
C13 C 0.0881(4) 0.71069(18) 0.8359(3)
H19 H 0.0518 0.7494 0.8912
C14 C 0.0207(4) 0.70948(17) 0.7227(3)
H20 H -0.0633 0.7470 0.7027
C15 C 0.1144(4) 0.41552(17) 0.5786(3)
H21 H 0.0728 0.3704 0.5299
H22 H 0.0368 0.4247 0.6430

#END
