./LAFLAH_from_POSCAR.cif_generated_by_CrystalShift
_symmetry_cell_setting triclinic
_symmetry_space_group_name_H-M 'P 1'
loop_
_symmetry_equiv_pos_site_id
_symmetry_equiv_pos_as_xyz
1 x,y,z
_cell_length_a 8.686700
_cell_length_b 9.349300
_cell_length_c 11.691000
_cell_angle_alpha 73.500000
_cell_angle_beta 77.580000
_cell_angle_gamma 78.730000
_cell_volume 879.875796
loop_
_atom_site_label
_atom_site_type_symbol
_atom_site_fract_x
_atom_site_fract_y
_atom_site_fract_z
H1 H -0.246000 0.984800 0.928700
H2 H -0.510000 1.042000 0.890400
H3 H 0.880000 -0.177000 0.249000
H4 H -0.554000 1.139000 0.688400
H5 H -0.336000 1.192000 0.524800
H6 H -0.075000 1.129000 0.574600
H7 H 0.910000 0.476000 0.068000
H8 H 0.032300 0.981000 0.864400
H9 H 0.660000 0.324000 0.048700
H10 H 0.852000 0.269000 0.028800
H11 H 0.111000 0.866700 0.658100
H12 H 0.678100 0.145500 0.229000
H13 H 0.016500 0.774300 0.782000
H14 H 0.265000 0.305000 0.991000
H15 H 0.604000 0.559000 0.415100
H16 H 0.752000 0.440000 0.435500
H17 H 0.765000 0.614000 0.418300
H18 H 0.399000 0.402000 0.997200
H19 H 0.237000 0.397000 1.090000
H20 H 0.479000 0.142800 0.383500
H21 H 0.554800 0.414900 0.774500
H22 H 0.204000 0.163000 0.425600
H23 H 0.829000 0.391000 0.728600
H24 H 0.046000 0.393000 0.371200
H25 H 0.954000 0.607000 0.628800
H26 H 0.171000 0.609000 0.271400
H27 H 0.796000 0.837000 0.574400
H28 H 0.445200 0.585100 0.225500
H29 H 0.521000 0.857200 0.616500
H30 H 0.763000 0.603000 -0.090000
H31 H 0.601000 0.598000 0.002800
H32 H 0.735000 0.695000 0.009000
H33 H 0.235000 0.386000 0.581700
H34 H 0.983500 0.225700 0.218000
H35 H 0.889000 0.133300 0.341900
H36 H 0.248000 0.560000 0.564500
H37 H 0.967700 0.019000 0.135600
H38 H 0.396000 0.441000 0.584900
H39 H 0.321900 0.854500 0.771000
H40 H 1.075000 -0.129000 0.425400
H41 H 0.148000 0.731000 0.971200
H42 H 1.336000 -0.192000 0.475200
H43 H 0.340000 0.676000 0.951300
H44 H 1.554000 -0.139000 0.311600
H45 H 0.090000 0.524000 0.932000
H46 H 1.510000 -0.042000 0.109600
H47 H 0.120000 1.177000 0.751000
H48 H 1.246000 0.015200 0.071300
C49 C 0.232300 0.512060 0.292850
C50 C -0.420000 1.059100 0.822000
C51 C 1.265400 -0.023240 0.152960
C52 C -0.445900 1.120250 0.705200
C53 C -0.319300 1.149090 0.613000
C54 C 0.208700 0.529380 0.918460
C55 C 1.420000 -0.059100 0.178000
C56 C 0.238800 0.683800 0.921000
C57 C 1.445900 -0.120250 0.294800
C58 C 1.319300 -0.149090 0.387000
C59 C 0.254990 0.773090 0.788460
C60 C 1.165400 -0.112990 0.362840
C61 C 0.225500 0.435260 0.737410
C62 C 0.279800 0.457000 0.604550
C63 C 1.136290 -0.047730 0.245340
C64 C 0.967920 0.005110 0.219810
C65 C 0.903640 0.155670 0.252660
C66 C 0.509570 0.638420 0.702910
C67 C 0.583720 0.764690 0.641420
C68 C 0.713700 0.603700 -0.007350
C69 C 0.748320 0.751300 0.616520
C70 C 0.397250 0.500990 0.265820
C71 C 0.840140 0.613500 0.649720
C72 C -0.265400 1.023240 0.847040
C73 C 0.767700 0.487940 0.707150
C74 C 0.159860 0.386500 0.350280
C75 C 0.602750 0.499010 0.734180
C76 C 0.251680 0.248700 0.383480
C77 C 0.286300 0.396300 1.007350
C78 C 0.416280 0.235310 0.358580
C79 C 0.490430 0.361580 0.297090
C80 C 0.720200 0.543000 0.395450
C81 C 0.096360 0.844330 0.747340
C82 C 0.774500 0.564740 0.262590
C83 C 0.745010 0.226910 0.211540
C84 C 0.032080 0.994890 0.780190
C85 C 0.761200 0.316200 0.079000
C86 C -0.136290 1.047730 0.754660
C87 C -0.165400 1.112990 0.637160
C88 C 0.791300 0.470620 0.081540
N89 N 0.661700 0.342060 0.278000
N90 N 0.272450 0.525080 0.791610
N91 N 0.727550 0.474920 0.208390
N92 N 0.338300 0.657940 0.722000
O93 O 0.860190 -0.096060 0.289960
O94 O 0.146090 0.335470 0.800280
O95 O 0.139810 1.096060 0.710040
O96 O 0.853910 0.664530 0.199720

#END
