./LAFMAH_from_POSCAR.cif_generated_by_CrystalShift
_symmetry_cell_setting triclinic
_symmetry_space_group_name_H-M 'P 1'
loop_
_symmetry_equiv_pos_site_id
_symmetry_equiv_pos_as_xyz
1 x,y,z
_cell_length_a 23.218000
_cell_length_b 14.748000
_cell_length_c 12.094000
_cell_angle_alpha 90.000000
_cell_angle_beta 90.986000
_cell_angle_gamma 90.000000
_cell_volume 4140.602969
loop_
_atom_site_label
_atom_site_type_symbol
_atom_site_fract_x
_atom_site_fract_y
_atom_site_fract_z
H1 H 0.282200 0.883300 0.961100
H2 H 0.418300 0.917800 1.151300
H3 H 0.476700 0.927500 0.981400
H4 H 0.436000 0.921900 0.821900
H5 H 0.307800 0.734900 0.867000
H6 H 0.235700 0.633600 0.830400
H7 H 0.171000 0.657000 0.687700
H8 H 0.182200 0.788600 0.573000
H9 H 0.252400 0.889200 0.610200
H10 H 0.309400 1.061800 0.772200
H11 H 0.342000 1.178300 0.660400
H12 H 0.372100 1.278700 0.564200
H13 H 0.405300 1.391900 0.446200
H14 H 0.458700 1.348500 0.285900
H15 H 0.478400 1.194200 0.246400
H16 H 0.468400 0.875900 0.352300
H17 H 0.437900 0.761600 0.476700
H18 H 0.380300 0.796500 0.626200
H19 H 0.717800 0.383300 0.538900
H20 H 0.674000 0.394000 0.360400
H21 H 0.581700 0.417800 0.348700
H22 H 0.523300 0.427500 0.518600
H23 H 0.564000 0.421900 0.678100
H24 H 0.692200 0.234900 0.633000
H25 H 0.764300 0.133600 0.669600
H26 H 0.829000 0.157000 0.812300
H27 H 0.817800 0.288600 0.927000
H28 H 0.747600 0.389200 0.889800
H29 H 0.690600 0.561800 0.727800
H30 H 0.658000 0.678300 0.839600
H31 H 0.627900 0.778700 0.935800
H32 H 0.189500 0.495700 0.261100
H33 H 0.179200 0.630600 0.365500
H34 H 0.117400 0.631100 0.518100
H35 H -0.008300 0.477400 0.766900
H36 H -0.063000 0.346600 0.824200
H37 H -0.059900 0.212900 0.715200
H38 H -0.003300 0.210600 0.558200
H39 H 0.052300 0.208300 0.427400
H40 H 0.112400 0.206100 0.273500
H41 H 0.235700 0.377900 0.021200
H42 H 0.211900 0.469100 -0.132000
H43 H 0.117500 0.531800 -0.141500
H44 H 0.055000 0.509200 -0.006200
H45 H 0.074600 0.416600 0.148100
H46 H 0.249500 0.284600 0.338000
H47 H 0.313200 0.161700 0.334700
H48 H 0.315500 0.064500 0.172300
H49 H 0.248700 0.091900 0.022200
H50 H 0.184800 0.216200 0.031900
H51 H 0.594700 0.891900 1.053800
H52 H 0.541300 0.848500 1.214100
H53 H 0.521600 0.694200 1.253600
H54 H 0.531600 0.375900 1.147700
H55 H 0.562100 0.261600 1.023300
H56 H 0.619700 0.296500 0.873800
H57 H 0.717800 0.116700 0.038900
H58 H 0.674000 0.106000 -0.139600
H59 H 0.581700 0.082200 -0.151300
H60 H 0.523300 0.072500 0.018600
H61 H 0.564000 0.078100 0.178100
H62 H 0.692200 0.265100 0.133000
H63 H 0.764300 0.366400 0.169600
H64 H 0.829000 0.343000 0.312300
H65 H 0.817800 0.211400 0.427000
H66 H 0.747600 0.110800 0.389800
H67 H 0.690600 -0.061800 0.227800
H68 H 0.658000 -0.178300 0.339600
H69 H 0.627900 -0.278700 0.435800
H70 H 0.594700 -0.391900 0.553800
H71 H 0.541300 -0.348500 0.714100
H72 H 0.521600 -0.194200 0.753600
H73 H 0.531600 0.124100 0.647700
H74 H 0.562100 0.238400 0.523300
H75 H 0.619700 0.203500 0.373800
H76 H 0.282200 0.616700 0.461100
H77 H 0.326000 0.606000 0.639600
H78 H 0.418300 0.582200 0.651300
H79 H 0.476700 0.572500 0.481400
H80 H 0.436000 0.578100 0.321900
H81 H 0.307800 0.765100 0.367000
H82 H 0.810500 0.995700 0.238900
H83 H 0.820800 1.130600 0.134500
H84 H 0.882600 1.131100 -0.018100
H85 H 1.008300 0.977400 -0.266900
H86 H 1.063000 0.846600 -0.324200
H87 H 1.059900 0.712900 -0.215200
H88 H 1.003300 0.710600 -0.058200
H89 H 0.947700 0.708300 0.072600
H90 H 0.887600 0.706100 0.226500
H91 H 0.764300 0.877900 0.478800
H92 H 0.788100 0.969100 0.632000
H93 H 0.882500 1.031800 0.641500
H94 H 0.945000 1.009200 0.506200
H95 H 0.925400 0.916600 0.351900
H96 H 0.750500 0.784600 0.162000
H97 H 0.686800 0.661700 0.165300
H98 H 0.684500 0.564500 0.327700
H99 H 0.751300 0.591900 0.477800
H100 H 0.815200 0.716200 0.468100
H101 H 0.235700 0.866400 0.330400
H102 H 0.171000 0.843000 0.187700
H103 H 0.182200 0.711400 0.073000
H104 H 0.252400 0.610800 0.110200
H105 H 0.309400 0.438200 0.272200
H106 H 0.342000 0.321700 0.160400
H107 H 0.372100 0.221300 0.064200
H108 H 0.405300 0.108100 -0.053800
H109 H 0.458700 0.151500 -0.214100
H110 H 0.478400 0.305800 -0.253600
H111 H 0.468400 0.624100 -0.147700
H112 H 0.437900 0.738400 -0.023300
H113 H 0.380300 0.703500 0.126200
H114 H 0.184800 0.283800 0.531900
H115 H 0.248700 0.408100 0.522200
H116 H 0.315500 0.435500 0.672300
H117 H 0.313200 0.338300 0.834700
H118 H 0.249500 0.215400 0.838000
H119 H 0.074600 0.083400 0.648100
H120 H 0.055000 -0.009200 0.493800
H121 H 0.117500 -0.031800 0.358500
H122 H 0.211900 0.030900 0.368000
H123 H 0.235700 0.122100 0.521200
H124 H 0.112400 0.293900 0.773500
H125 H 0.052300 0.291700 0.927400
H126 H -0.003300 0.289400 1.058200
H127 H -0.059900 0.287100 1.215200
H128 H -0.063000 0.153400 1.324200
H129 H -0.008300 0.022600 1.266900
H130 H 0.117400 -0.131100 1.018100
H131 H 0.179200 -0.130600 0.865500
H132 H 0.810500 0.504300 0.738900
H133 H 0.820800 0.369400 0.634500
H134 H 0.882600 0.368900 0.481900
H135 H 1.008300 0.522600 0.233100
H136 H 1.063000 0.653400 0.175800
H137 H 1.059900 0.787100 0.284800
H138 H 1.003300 0.789400 0.441800
H139 H 0.947700 0.791700 0.572600
H140 H 0.887600 0.793900 0.726500
H141 H 0.764300 0.622100 0.978800
H142 H 0.788100 0.530900 1.132000
H143 H 0.882500 0.468200 1.141500
H144 H 0.945000 0.490800 1.006200
H145 H 0.925400 0.583400 0.851900
H146 H 0.750500 0.715400 0.662000
H147 H 0.686800 0.838300 0.665300
H148 H 0.684500 0.935500 0.827700
H149 H 0.751300 0.908100 0.977800
H150 H 0.815200 0.783800 0.968100
H151 H 0.189500 0.004300 0.761100
H152 H 0.326000 0.894000 1.139600
C153 C 0.097300 0.081850 0.945400
C154 C 0.133520 0.082180 0.850500
C155 C 0.164270 0.002920 0.825500
C156 C 0.158510 -0.074300 0.885300
C157 C 0.123050 -0.075170 0.976800
C158 C 0.093920 0.001220 1.008500
C159 C 0.058870 -0.001100 1.109300
C160 C 0.026360 0.081100 1.137500
C161 C -0.008180 0.080500 1.231700
C162 C -0.039800 0.154700 1.259500
C163 C -0.037720 0.231500 1.195500
C164 C -0.003720 0.234210 1.103100
C165 C 0.029380 0.159450 1.072200
C166 C 0.066470 0.161570 0.974200
C167 C 0.072930 0.238140 0.911300
C168 C 0.108120 0.238580 0.818300
C169 C 0.137370 0.162990 0.786700
C170 C 0.157460 0.111190 0.598500
C171 C 0.197320 0.094830 0.516300
C172 C 0.182690 0.041400 0.426100
C173 C 0.129750 0.001300 0.418600
C174 C 0.090590 0.016200 0.500600
C175 C 0.103460 0.071310 0.589100
C176 C 0.211200 0.240220 0.683700
C177 C 0.248400 0.257260 0.771600
C178 C 0.285700 0.330100 0.766800
C179 C 0.286700 0.385100 0.676300
C180 C 0.249550 0.368800 0.589800
C181 C 0.211650 0.296590 0.591800
C182 C 0.097300 0.418150 0.445400
C183 C 0.788350 0.796590 0.908200
C184 C 0.750450 0.868800 0.910200
C185 C 0.713300 0.885100 0.823700
C186 C 0.714300 0.830100 0.733200
C187 C 0.751600 0.757260 0.728400
C188 C 0.788800 0.740220 0.816300
C189 C 0.896540 0.571310 0.910900
C190 C 0.909410 0.516200 0.999400
C191 C 0.870250 0.501300 1.081400
C192 C 0.817310 0.541400 1.073900
C193 C 0.802680 0.594830 0.983700
C194 C 0.842540 0.611190 0.901500
C195 C 0.862630 0.662990 0.713300
C196 C 0.891880 0.738580 0.681700
C197 C 0.927070 0.738140 0.588700
C198 C 0.933530 0.661570 0.525800
C199 C 0.970620 0.659450 0.427800
C200 C 1.003720 0.734210 0.396900
C201 C 0.133520 0.417820 0.350500
C202 C 0.164270 0.497080 0.325500
C203 C 0.396750 0.495010 0.026400
C204 C 0.377690 0.565220 0.097600
C205 C 0.393760 0.655500 0.075800
C206 C 0.426520 0.676370 -0.013200
C207 C 0.444440 0.608400 -0.084200
C208 C 0.430200 0.519210 -0.065800
C209 C 0.451780 0.448300 -0.141400
C210 C 0.437280 0.353330 -0.116800
C211 C 0.456830 0.284700 -0.187100
C212 C 0.445110 0.195800 -0.165400
C213 C 0.413930 0.172650 -0.073900
C214 C 0.394130 0.238750 -0.003400
C215 C 0.405290 0.330950 -0.024000
C216 C 0.383630 0.402860 0.049200
C217 C 0.351030 0.383880 0.139600
C218 C 0.332190 0.452400 0.210200
C219 C 0.344790 0.541410 0.191200
C220 C 0.285750 0.673900 0.244300
C221 C 0.248130 0.660400 0.156500
C222 C 0.205180 0.724400 0.134000
C223 C 0.199300 0.798700 0.198800
C224 C 0.237100 0.812900 0.284300
C225 C 0.280530 0.751600 0.307300
C226 C 0.353220 0.601090 0.377000
C227 C 0.411270 0.584870 0.387800
C228 C 0.436160 0.576700 0.491800
C229 C 0.405200 0.585800 0.583500
C230 C 0.347500 0.601200 0.574200
C231 C 0.320910 0.607400 0.472500
C232 C 1.037720 0.731500 0.304500
C233 C 1.039800 0.654700 0.240500
C234 C 1.008180 0.580500 0.268300
C235 C 0.973640 0.581100 0.362500
C236 C 0.941130 0.498900 0.390700
C237 C 0.906080 0.501220 0.491500
C238 C 0.876950 0.424830 0.523200
C239 C 0.841490 0.425700 0.614700
C240 C 0.835730 0.502920 0.674500
C241 C 0.866480 0.582180 0.649500
C242 C 0.902700 0.581850 0.554600
C243 C 0.158510 0.574300 0.385300
C244 C 0.123050 0.575170 0.476800
C245 C 0.788350 0.703410 0.408200
C246 C 0.750450 0.631200 0.410200
C247 C 0.713300 0.614900 0.323700
C248 C 0.714300 0.669900 0.233200
C249 C 0.751600 0.742740 0.228400
C250 C 0.788800 0.759780 0.316300
C251 C 0.093920 0.498780 0.508500
C252 C 0.058870 0.501100 0.609300
C253 C 0.603250 -0.004990 0.473600
C254 C 0.622310 0.065220 0.402400
C255 C 0.606240 0.155500 0.424200
C256 C 0.573480 0.176370 0.513200
C257 C 0.555560 0.108400 0.584200
C258 C 0.569800 0.019210 0.565800
C259 C 0.548220 -0.051700 0.641400
C260 C 0.562720 -0.146670 0.616800
C261 C 0.543170 -0.215300 0.687100
C262 C 0.554890 -0.304200 0.665400
C263 C 0.586070 -0.327350 0.573900
C264 C 0.605870 -0.261250 0.503400
C265 C 0.594710 -0.169050 0.524000
C266 C 0.616370 -0.097140 0.450800
C267 C 0.648970 -0.116120 0.360400
C268 C 0.667810 -0.047600 0.289800
C269 C 0.655210 0.041410 0.308800
C270 C 0.714250 0.173900 0.255700
C271 C 0.751870 0.160400 0.343500
C272 C 0.794820 0.224400 0.366000
C273 C 0.800700 0.298700 0.301200
C274 C 0.762900 0.312900 0.215700
C275 C 0.719470 0.251600 0.192700
C276 C 0.646780 0.101090 0.123000
C277 C 0.588730 0.084870 0.112200
C278 C 0.563840 0.076700 0.008200
C279 C 0.594800 0.085800 -0.083500
C280 C 0.652500 0.101200 -0.074200
C281 C 0.679090 0.107400 0.027500
C282 C 0.896540 0.928690 0.410900
C283 C 0.909410 0.983800 0.499400
C284 C 0.870250 0.998700 0.581400
C285 C 0.817310 0.958600 0.573900
C286 C 0.802680 0.905170 0.483700
C287 C 0.842540 0.888810 0.401500
C288 C 0.862630 0.837010 0.213300
C289 C 0.891880 0.761420 0.181700
C290 C 0.927070 0.761860 0.088700
C291 C 0.933530 0.838430 0.025800
C292 C 0.970620 0.840550 -0.072200
C293 C 1.003720 0.765790 -0.103100
C294 C 1.037720 0.768500 -0.195500
C295 C 1.039800 0.845300 -0.259500
C296 C 1.008180 0.919500 -0.231700
C297 C 0.973640 0.918900 -0.137500
C298 C 0.941130 1.001100 -0.109300
C299 C 0.906080 0.998780 -0.008500
C300 C 0.876950 1.075170 0.023200
C301 C 0.026360 0.418900 0.637500
C302 C -0.008180 0.419500 0.731700
C303 C 0.603250 0.504990 0.973600
C304 C 0.622310 0.434780 0.902400
C305 C 0.606240 0.344500 0.924200
C306 C 0.573480 0.323630 1.013200
C307 C 0.555560 0.391600 1.084200
C308 C 0.569800 0.480790 1.065800
C309 C 0.548220 0.551700 1.141400
C310 C 0.562720 0.646670 1.116800
C311 C 0.543170 0.715300 1.187100
C312 C 0.554890 0.804200 1.165400
C313 C 0.586070 0.827350 1.073900
C314 C 0.605870 0.761250 1.003400
C315 C 0.594710 0.669050 1.024000
C316 C 0.616370 0.597140 0.950800
C317 C 0.648970 0.616120 0.860400
C318 C 0.667810 0.547600 0.789800
C319 C 0.655210 0.458590 0.808800
C320 C 0.714250 0.326100 0.755700
C321 C 0.751870 0.339600 0.843500
C322 C 0.794820 0.275600 0.866000
C323 C 0.800700 0.201300 0.801200
C324 C 0.762900 0.187100 0.715700
C325 C 0.719470 0.248400 0.692700
C326 C 0.646780 0.398910 0.623000
C327 C 0.588730 0.415130 0.612200
C328 C 0.563840 0.423300 0.508200
C329 C 0.594800 0.414200 0.416500
C330 C 0.652500 0.398800 0.425800
C331 C 0.679090 0.392600 0.527500
C332 C 0.841490 1.074300 0.114700
C333 C 0.835730 0.997080 0.174500
C334 C 0.866480 0.917820 0.149500
C335 C 0.902700 0.918150 0.054600
C336 C -0.039800 0.345300 0.759500
C337 C -0.037720 0.268500 0.695500
C338 C 0.211650 0.203410 0.091800
C339 C 0.249550 0.131200 0.089800
C340 C 0.286700 0.114900 0.176300
C341 C 0.285700 0.169900 0.266800
C342 C 0.248400 0.242740 0.271600
C343 C 0.211200 0.259780 0.183700
C344 C 0.103460 0.428690 0.089100
C345 C 0.090590 0.483800 0.000600
C346 C 0.129750 0.498700 -0.081400
C347 C 0.182690 0.458600 -0.073900
C348 C 0.197320 0.405170 0.016300
C349 C 0.157460 0.388810 0.098500
C350 C 0.137370 0.337010 0.286700
C351 C -0.003720 0.265790 0.603100
C352 C 0.029380 0.340550 0.572200
C353 C 0.396750 1.004990 0.526400
C354 C 0.377690 0.934780 0.597600
C355 C 0.393760 0.844500 0.575800
C356 C 0.426520 0.823630 0.486800
C357 C 0.444440 0.891600 0.415800
C358 C 0.430200 0.980790 0.434200
C359 C 0.451780 1.051700 0.358600
C360 C 0.437280 1.146670 0.383200
C361 C 0.456830 1.215300 0.312900
C362 C 0.445110 1.304200 0.334600
C363 C 0.413930 1.327350 0.426100
C364 C 0.394130 1.261250 0.496600
C365 C 0.405290 1.169050 0.476000
C366 C 0.383630 1.097140 0.549200
C367 C 0.351030 1.116120 0.639600
C368 C 0.332190 1.047600 0.710200
C369 C 0.344790 0.958590 0.691200
C370 C 0.285750 0.826100 0.744300
C371 C 0.248130 0.839600 0.656500
C372 C 0.205180 0.775600 0.634000
C373 C 0.199300 0.701300 0.698800
C374 C 0.237100 0.687100 0.784300
C375 C 0.280530 0.748400 0.807300
C376 C 0.353220 0.898910 0.877000
C377 C 0.411270 0.915130 0.887800
C378 C 0.436160 0.923300 0.991800
C379 C 0.405200 0.914200 1.083500
C380 C 0.347500 0.898800 1.074200
C381 C 0.320910 0.892600 0.972500
C382 C 0.108120 0.261420 0.318300
C383 C 0.072930 0.261860 0.411300
C384 C 0.066470 0.338430 0.474200
N385 N 0.328440 0.891140 0.769730
N386 N 0.172660 0.334690 0.190960
N387 N 0.328440 0.608860 0.269730
N388 N 0.827340 0.834690 0.309040
N389 N 0.671560 0.391140 0.730270
N390 N 0.827340 0.665310 0.809040
N391 N 0.671560 0.108860 0.230270
N392 N 0.172660 0.165310 0.690960
O393 O 0.518880 0.531340 1.221710
O394 O 0.942280 1.069350 -0.168450
O395 O 0.481120 0.468660 -0.221710
O396 O 0.057720 -0.069350 1.168450
O397 O 0.481120 1.031340 0.278290
O398 O 0.518880 -0.031340 0.721710
O399 O 0.942280 0.430650 0.331550
O400 O 0.057720 0.569350 0.668450

#END
