
#######################################################################
#
#                 Cambridge Crystallographic Data Centre
#                                CCDC 
#
#######################################################################
#
# If this CIF has been generated from an entry in the Cambridge 
# Structural Database, then it will include bibliographic, chemical, 
# crystal, experimental, refinement or atomic coordinate data resulting 
# from the CCDC's data processing and validation procedures.
#
#######################################################################

data_LAFMAH
_symmetry_cell_setting           monoclinic
_symmetry_space_group_name_H-M   'P 21/c'
_symmetry_Int_Tables_number      14
_space_group_name_Hall           '-P 2ybc'
loop_
_symmetry_equiv_pos_site_id
_symmetry_equiv_pos_as_xyz
1 x,y,z
2 -x,1/2+y,1/2-z
3 -x,-y,-z
4 x,1/2-y,1/2+z
_cell_length_a                   23.218(4)
_cell_length_b                   14.748(2)
_cell_length_c                   12.094(2)
_cell_angle_alpha                90
_cell_angle_beta                 90.986(4)
_cell_angle_gamma                90
_cell_volume                     4140.6
loop_
_atom_site_label
_atom_site_type_symbol
_atom_site_fract_x
_atom_site_fract_y
_atom_site_fract_z
O1 O 0.05772(9) 0.56935(13) 0.66845(16)
N1 N 0.17266(10) 0.33469(14) 0.19096(17)
C1 C 0.09730(11) 0.41815(17) 0.4454(2)
C2 C 0.13352(11) 0.41782(17) 0.3505(2)
C3 C 0.16427(12) 0.49708(19) 0.3255(2)
C4 C 0.15851(12) 0.57430(18) 0.3853(2)
C5 C 0.12305(12) 0.57517(17) 0.4768(2)
C6 C 0.09392(12) 0.49878(18) 0.5085(2)
C7 C 0.05887(13) 0.5011(2) 0.6093(2)
C8 C 0.02636(12) 0.4189(2) 0.6375(2)
C9 C -0.00818(14) 0.4195(2) 0.7317(2)
C10 C -0.03980(15) 0.3453(3) 0.7595(3)
C11 C -0.03772(14) 0.2685(2) 0.6955(3)
C12 C -0.00372(13) 0.26579(18) 0.6031(2)
C13 C 0.02938(12) 0.34055(19) 0.5722(2)
C14 C 0.06647(11) 0.33843(18) 0.4742(2)
C15 C 0.07293(11) 0.26186(16) 0.4113(2)
C16 C 0.10812(12) 0.26142(17) 0.3183(2)
C17 C 0.13737(11) 0.33701(18) 0.2867(2)
C18 C 0.15746(13) 0.38881(17) 0.0985(2)
C19 C 0.19732(13) 0.40517(18) 0.0163(2)
C20 C 0.18269(17) 0.4586(2) -0.0739(3)
C21 C 0.12975(18) 0.4987(2) -0.0814(3)
C22 C 0.09059(14) 0.4838(2) 0.0006(3)
C23 C 0.10346(14) 0.42869(18) 0.0891(2)
C24 C 0.21120(13) 0.25978(18) 0.1837(2)
C25 C 0.24840(13) 0.24274(18) 0.2716(2)
C26 C 0.28570(13) 0.1699(2) 0.2668(3)
C27 C 0.28670(16) 0.1149(2) 0.1763(3)
C28 C 0.24955(17) 0.1312(2) 0.0898(3)
C29 C 0.21165(13) 0.20341(19) 0.0918(2)
H1 H 0.1895 0.4957 0.2611
H2 H 0.1792 0.6306 0.3655
H3 H 0.1174 0.6311 0.5181
H4 H -0.0083 0.4774 0.7669
H5 H -0.0630 0.3466 0.8242
H6 H -0.0599 0.2129 0.7152
H7 H -0.0033 0.2106 0.5582
H8 H 0.0523 0.2083 0.4274
H9 H 0.1124 0.2061 0.2735
H10 H 0.2357 0.3779 0.0212
H11 H 0.2119 0.4691 -0.1320
H12 H 0.1175 0.5318 -0.1415
H13 H 0.0550 0.5092 -0.0062
H14 H 0.0746 0.4166 0.1481
H15 H 0.2495 0.2846 0.3380
H16 H 0.3132 0.1617 0.3347
H17 H 0.3155 0.0645 0.1723
H18 H 0.2487 0.0919 0.0222
H19 H 0.1848 0.2162 0.0319
O1 O 0.94228(9) 1.06935(13) -0.16845(16)
N1 N 0.82734(10) 0.83469(14) 0.30904(17)
C1 C 0.90270(11) 0.91815(17) 0.0546(2)
C2 C 0.86648(11) 0.91782(17) 0.1495(2)
C3 C 0.83573(12) 0.99708(19) 0.1745(2)
C4 C 0.84149(12) 1.07430(18) 0.1147(2)
C5 C 0.87695(12) 1.07517(17) 0.0232(2)
C6 C 0.90608(12) 0.99878(18) -0.0085(2)
C7 C 0.94113(13) 1.0011(2) -0.1093(2)
C8 C 0.97364(12) 0.9189(2) -0.1375(2)
C9 C 1.00818(14) 0.9195(2) -0.2317(2)
C10 C 1.03980(15) 0.8453(3) -0.2595(3)
C11 C 1.03772(14) 0.7685(2) -0.1955(3)
C12 C 1.00372(13) 0.76579(18) -0.1031(2)
C13 C 0.97062(12) 0.84055(19) -0.0722(2)
C14 C 0.93353(11) 0.83843(18) 0.0258(2)
C15 C 0.92707(11) 0.76186(16) 0.0887(2)
C16 C 0.89188(12) 0.76142(17) 0.1817(2)
C17 C 0.86263(11) 0.83701(18) 0.2133(2)
C18 C 0.84254(13) 0.88881(17) 0.4015(2)
C19 C 0.80268(13) 0.90517(18) 0.4837(2)
C20 C 0.81731(17) 0.9586(2) 0.5739(3)
C21 C 0.87025(18) 0.9987(2) 0.5814(3)
C22 C 0.90941(14) 0.9838(2) 0.4994(3)
C23 C 0.89654(14) 0.92869(18) 0.4109(2)
C24 C 0.78880(13) 0.75978(18) 0.3163(2)
C25 C 0.75160(13) 0.74274(18) 0.2284(2)
C26 C 0.71430(13) 0.6699(2) 0.2332(3)
C27 C 0.71330(16) 0.6149(2) 0.3237(3)
C28 C 0.75045(17) 0.6312(2) 0.4102(3)
C29 C 0.78835(13) 0.70341(19) 0.4082(2)
H1 H 0.8105 0.9957 0.2389
H2 H 0.8208 1.1306 0.1345
H3 H 0.8826 1.1311 -0.0181
H4 H 1.0083 0.9774 -0.2669
H5 H 1.0630 0.8466 -0.3242
H6 H 1.0599 0.7129 -0.2152
H7 H 1.0033 0.7106 -0.0582
H8 H 0.9477 0.7083 0.0726
H9 H 0.8876 0.7061 0.2265
H10 H 0.7643 0.8779 0.4788
H11 H 0.7881 0.9691 0.6320
H12 H 0.8825 1.0318 0.6415
H13 H 0.9450 1.0092 0.5062
H14 H 0.9254 0.9166 0.3519
H15 H 0.7505 0.7846 0.1620
H16 H 0.6868 0.6617 0.1653
H17 H 0.6845 0.5645 0.3277
H18 H 0.7513 0.5919 0.4778
H19 H 0.8152 0.7162 0.4681
O1 O 0.94228(9) 0.43065(13) 0.33155(16)
N1 N 0.82734(10) 0.66531(14) 0.80904(17)
C1 C 0.90270(11) 0.58185(17) 0.5546(2)
C2 C 0.86648(11) 0.58218(17) 0.6495(2)
C3 C 0.83573(12) 0.50292(19) 0.6745(2)
C4 C 0.84149(12) 0.42570(18) 0.6147(2)
C5 C 0.87695(12) 0.42483(17) 0.5232(2)
C6 C 0.90608(12) 0.50122(18) 0.4915(2)
C7 C 0.94113(13) 0.4989(2) 0.3907(2)
C8 C 0.97364(12) 0.5811(2) 0.3625(2)
C9 C 1.00818(14) 0.5805(2) 0.2683(2)
C10 C 1.03980(15) 0.6547(3) 0.2405(3)
C11 C 1.03772(14) 0.7315(2) 0.3045(3)
C12 C 1.00372(13) 0.73421(18) 0.3969(2)
C13 C 0.97062(12) 0.65945(19) 0.4278(2)
C14 C 0.93353(11) 0.66157(18) 0.5258(2)
C15 C 0.92707(11) 0.73814(16) 0.5887(2)
C16 C 0.89188(12) 0.73858(17) 0.6817(2)
C17 C 0.86263(11) 0.66299(18) 0.7133(2)
C18 C 0.84254(13) 0.61119(17) 0.9015(2)
C19 C 0.80268(13) 0.59483(18) 0.9837(2)
C20 C 0.81731(17) 0.5414(2) 1.0739(3)
C21 C 0.87025(18) 0.5013(2) 1.0814(3)
C22 C 0.90941(14) 0.5162(2) 0.9994(3)
C23 C 0.89654(14) 0.57131(18) 0.9109(2)
C24 C 0.78880(13) 0.74022(18) 0.8163(2)
C25 C 0.75160(13) 0.75726(18) 0.7284(2)
C26 C 0.71430(13) 0.8301(2) 0.7332(3)
C27 C 0.71330(16) 0.8851(2) 0.8237(3)
C28 C 0.75045(17) 0.8688(2) 0.9102(3)
C29 C 0.78835(13) 0.79659(19) 0.9082(2)
H1 H 0.8105 0.5043 0.7389
H2 H 0.8208 0.3694 0.6345
H3 H 0.8826 0.3689 0.4819
H4 H 1.0083 0.5226 0.2331
H5 H 1.0630 0.6534 0.1758
H6 H 1.0599 0.7871 0.2848
H7 H 1.0033 0.7894 0.4418
H8 H 0.9477 0.7917 0.5726
H9 H 0.8876 0.7939 0.7265
H10 H 0.7643 0.6221 0.9788
H11 H 0.7881 0.5309 1.1320
H12 H 0.8825 0.4682 1.1415
H13 H 0.9450 0.4908 1.0062
H14 H 0.9254 0.5834 0.8519
H15 H 0.7505 0.7154 0.6620
H16 H 0.6868 0.8383 0.6653
H17 H 0.6845 0.9355 0.8277
H18 H 0.7513 0.9081 0.9778
H19 H 0.8152 0.7838 0.9681
O1 O 0.05772(9) -0.06935(13) 1.16845(16)
N1 N 0.17266(10) 0.16531(14) 0.69096(17)
C1 C 0.09730(11) 0.08185(17) 0.9454(2)
C2 C 0.13352(11) 0.08218(17) 0.8505(2)
C3 C 0.16427(12) 0.00292(19) 0.8255(2)
C4 C 0.15851(12) -0.07430(18) 0.8853(2)
C5 C 0.12305(12) -0.07517(17) 0.9768(2)
C6 C 0.09392(12) 0.00122(18) 1.0085(2)
C7 C 0.05887(13) -0.0011(2) 1.1093(2)
C8 C 0.02636(12) 0.0811(2) 1.1375(2)
C9 C -0.00818(14) 0.0805(2) 1.2317(2)
C10 C -0.03980(15) 0.1547(3) 1.2595(3)
C11 C -0.03772(14) 0.2315(2) 1.1955(3)
C12 C -0.00372(13) 0.23421(18) 1.1031(2)
C13 C 0.02938(12) 0.15945(19) 1.0722(2)
C14 C 0.06647(11) 0.16157(18) 0.9742(2)
C15 C 0.07293(11) 0.23814(16) 0.9113(2)
C16 C 0.10812(12) 0.23858(17) 0.8183(2)
C17 C 0.13737(11) 0.16299(18) 0.7867(2)
C18 C 0.15746(13) 0.11119(17) 0.5985(2)
C19 C 0.19732(13) 0.09483(18) 0.5163(2)
C20 C 0.18269(17) 0.0414(2) 0.4261(3)
C21 C 0.12975(18) 0.0013(2) 0.4186(3)
C22 C 0.09059(14) 0.0162(2) 0.5006(3)
C23 C 0.10346(14) 0.07131(18) 0.5891(2)
C24 C 0.21120(13) 0.24022(18) 0.6837(2)
C25 C 0.24840(13) 0.25726(18) 0.7716(2)
C26 C 0.28570(13) 0.3301(2) 0.7668(3)
C27 C 0.28670(16) 0.3851(2) 0.6763(3)
C28 C 0.24955(17) 0.3688(2) 0.5898(3)
C29 C 0.21165(13) 0.29659(19) 0.5918(2)
H1 H 0.1895 0.0043 0.7611
H2 H 0.1792 -0.1306 0.8655
H3 H 0.1174 -0.1311 1.0181
H4 H -0.0083 0.0226 1.2669
H5 H -0.0630 0.1534 1.3242
H6 H -0.0599 0.2871 1.2152
H7 H -0.0033 0.2894 1.0582
H8 H 0.0523 0.2917 0.9274
H9 H 0.1124 0.2939 0.7735
H10 H 0.2357 0.1221 0.5212
H11 H 0.2119 0.0309 0.3680
H12 H 0.1175 -0.0318 0.3585
H13 H 0.0550 -0.0092 0.4938
H14 H 0.0746 0.0834 0.6481
H15 H 0.2495 0.2154 0.8380
H16 H 0.3132 0.3383 0.8347
H17 H 0.3155 0.4355 0.6723
H18 H 0.2487 0.4081 0.5222
H19 H 0.1848 0.2838 0.5319
O2 O 0.48112(9) 0.46866(13) -0.22171(16)
N2 N 0.32844(10) 0.60886(14) 0.26973(19)
C30 C 0.39675(11) 0.49501(17) 0.0264(2)
C31 C 0.37769(11) 0.56522(17) 0.0976(2)
C32 C 0.39376(12) 0.65550(18) 0.0758(2)
C33 C 0.42652(13) 0.67637(18) -0.0132(3)
C34 C 0.44444(12) 0.6084(2) -0.0842(2)
C35 C 0.43020(11) 0.51921(18) -0.0658(2)
C36 C 0.45178(12) 0.4483(2) -0.1414(2)
C37 C 0.43728(11) 0.35333(19) -0.1168(2)
C38 C 0.45683(13) 0.2847(2) -0.1871(2)
C39 C 0.44511(14) 0.1958(2) -0.1654(3)
C40 C 0.41393(15) 0.17265(19) -0.0739(3)
C41 C 0.39413(12) 0.23875(19) -0.0034(2)
C42 C 0.40529(11) 0.33095(18) -0.0240(2)
C43 C 0.38363(11) 0.40286(16) 0.0492(2)
C44 C 0.35103(12) 0.38388(16) 0.1396(2)
C45 C 0.33219(12) 0.4524(2) 0.2102(2)
C46 C 0.34479(12) 0.54141(18) 0.1912(2)
C47 C 0.28575(14) 0.67390(19) 0.2443(3)
C48 C 0.24813(16) 0.6604(2) 0.1565(3)
C49 C 0.20518(16) 0.7244(3) 0.1340(3)
C50 C 0.19930(18) 0.7987(3) 0.1988(4)
C51 C 0.23710(19) 0.8129(2) 0.2843(3)
C52 C 0.28053(14) 0.7516(2) 0.3073(2)
C53 C 0.35322(14) 0.60109(16) 0.3770(3)
C54 C 0.41127(16) 0.58487(17) 0.3878(3)
C55 C 0.43616(18) 0.5767(2) 0.4918(5)
C56 C 0.4052(3) 0.5858(3) 0.5835(4)
C57 C 0.3475(2) 0.6012(2) 0.5742(3)
C58 C 0.32091(14) 0.60740(18) 0.4725(3)
H20 H 0.3803 0.7035 0.1262
H21 H 0.4379 0.7384 -0.0233
H22 H 0.4684 0.6241 -0.1477
H23 H 0.4784 0.3058 -0.2536
H24 H 0.4587 0.1515 -0.2141
H25 H 0.4053 0.1081 -0.0538
H26 H 0.3721 0.2213 0.0642
H27 H 0.3420 0.3217 0.1604
H28 H 0.3094 0.4382 0.2722
H29 H 0.2524 0.6108 0.1102
H30 H 0.1822 0.7114 0.0730
H31 H 0.1710 0.8430 0.1877
H32 H 0.2357 0.8664 0.3304
H33 H 0.3078 0.7651 0.3670
H34 H 0.4360 0.5781 0.3219
H35 H 0.4767 0.5725 0.4814
H36 H 0.4183 0.5822 0.6513
H37 H 0.3260 0.6060 0.6396
H38 H 0.2822 0.6167 0.4611
O2 O 0.51888(9) -0.03134(13) 0.72171(16)
N2 N 0.67156(10) 0.10886(14) 0.23027(19)
C30 C 0.60325(11) -0.00499(17) 0.4736(2)
C31 C 0.62231(11) 0.06522(17) 0.4024(2)
C32 C 0.60624(12) 0.15550(18) 0.4242(2)
C33 C 0.57348(13) 0.17637(18) 0.5132(3)
C34 C 0.55556(12) 0.1084(2) 0.5842(2)
C35 C 0.56980(11) 0.01921(18) 0.5658(2)
C36 C 0.54822(12) -0.0517(2) 0.6414(2)
C37 C 0.56272(11) -0.14667(19) 0.6168(2)
C38 C 0.54317(13) -0.2153(2) 0.6871(2)
C39 C 0.55489(14) -0.3042(2) 0.6654(3)
C40 C 0.58607(15) -0.32735(19) 0.5739(3)
C41 C 0.60587(12) -0.26125(19) 0.5034(2)
C42 C 0.59471(11) -0.16905(18) 0.5240(2)
C43 C 0.61637(11) -0.09714(16) 0.4508(2)
C44 C 0.64897(12) -0.11612(16) 0.3604(2)
C45 C 0.66781(12) -0.0476(2) 0.2898(2)
C46 C 0.65521(12) 0.04141(18) 0.3088(2)
C47 C 0.71425(14) 0.17390(19) 0.2557(3)
C48 C 0.75187(16) 0.1604(2) 0.3435(3)
C49 C 0.79482(16) 0.2244(3) 0.3660(3)
C50 C 0.80070(18) 0.2987(3) 0.3012(4)
C51 C 0.76290(19) 0.3129(2) 0.2157(3)
C52 C 0.71947(14) 0.2516(2) 0.1927(2)
C53 C 0.64678(14) 0.10109(16) 0.1230(3)
C54 C 0.58873(16) 0.08487(17) 0.1122(3)
C55 C 0.56384(18) 0.0767(2) 0.0082(5)
C56 C 0.5948(3) 0.0858(3) -0.0835(4)
C57 C 0.6525(2) 0.1012(2) -0.0742(3)
C58 C 0.67909(14) 0.10740(18) 0.0275(3)
H20 H 0.6197 0.2035 0.3738
H21 H 0.5621 0.2384 0.5233
H22 H 0.5316 0.1241 0.6477
H23 H 0.5216 -0.1942 0.7536
H24 H 0.5413 -0.3485 0.7141
H25 H 0.5947 -0.3919 0.5538
H26 H 0.6279 -0.2787 0.4358
H27 H 0.6580 -0.1783 0.3396
H28 H 0.6906 -0.0618 0.2278
H29 H 0.7476 0.1108 0.3898
H30 H 0.8178 0.2114 0.4270
H31 H 0.8290 0.3430 0.3123
H32 H 0.7643 0.3664 0.1696
H33 H 0.6922 0.2651 0.1330
H34 H 0.5640 0.0781 0.1781
H35 H 0.5233 0.0725 0.0186
H36 H 0.5817 0.0822 -0.1513
H37 H 0.6740 0.1060 -0.1396
H38 H 0.7178 0.1167 0.0389
O2 O 0.51888(9) 0.53134(13) 1.22171(16)
N2 N 0.67156(10) 0.39114(14) 0.73027(19)
C30 C 0.60325(11) 0.50499(17) 0.9736(2)
C31 C 0.62231(11) 0.43478(17) 0.9024(2)
C32 C 0.60624(12) 0.34450(18) 0.9242(2)
C33 C 0.57348(13) 0.32363(18) 1.0132(3)
C34 C 0.55556(12) 0.3916(2) 1.0842(2)
C35 C 0.56980(11) 0.48079(18) 1.0658(2)
C36 C 0.54822(12) 0.5517(2) 1.1414(2)
C37 C 0.56272(11) 0.64667(19) 1.1168(2)
C38 C 0.54317(13) 0.7153(2) 1.1871(2)
C39 C 0.55489(14) 0.8042(2) 1.1654(3)
C40 C 0.58607(15) 0.82735(19) 1.0739(3)
C41 C 0.60587(12) 0.76125(19) 1.0034(2)
C42 C 0.59471(11) 0.66905(18) 1.0240(2)
C43 C 0.61637(11) 0.59714(16) 0.9508(2)
C44 C 0.64897(12) 0.61612(16) 0.8604(2)
C45 C 0.66781(12) 0.5476(2) 0.7898(2)
C46 C 0.65521(12) 0.45859(18) 0.8088(2)
C47 C 0.71425(14) 0.32610(19) 0.7557(3)
C48 C 0.75187(16) 0.3396(2) 0.8435(3)
C49 C 0.79482(16) 0.2756(3) 0.8660(3)
C50 C 0.80070(18) 0.2013(3) 0.8012(4)
C51 C 0.76290(19) 0.1871(2) 0.7157(3)
C52 C 0.71947(14) 0.2484(2) 0.6927(2)
C53 C 0.64678(14) 0.39891(16) 0.6230(3)
C54 C 0.58873(16) 0.41513(17) 0.6122(3)
C55 C 0.56384(18) 0.4233(2) 0.5082(5)
C56 C 0.5948(3) 0.4142(3) 0.4165(4)
C57 C 0.6525(2) 0.3988(2) 0.4258(3)
C58 C 0.67909(14) 0.39260(18) 0.5275(3)
H20 H 0.6197 0.2965 0.8738
H21 H 0.5621 0.2616 1.0233
H22 H 0.5316 0.3759 1.1477
H23 H 0.5216 0.6942 1.2536
H24 H 0.5413 0.8485 1.2141
H25 H 0.5947 0.8919 1.0538
H26 H 0.6279 0.7787 0.9358
H27 H 0.6580 0.6783 0.8396
H28 H 0.6906 0.5618 0.7278
H29 H 0.7476 0.3892 0.8898
H30 H 0.8178 0.2886 0.9270
H31 H 0.8290 0.1570 0.8123
H32 H 0.7643 0.1336 0.6696
H33 H 0.6922 0.2349 0.6330
H34 H 0.5640 0.4219 0.6781
H35 H 0.5233 0.4275 0.5186
H36 H 0.5817 0.4178 0.3487
H37 H 0.6740 0.3940 0.3604
H38 H 0.7178 0.3833 0.5389
O2 O 0.48112(9) 1.03134(13) 0.27829(16)
N2 N 0.32844(10) 0.89114(14) 0.76973(19)
C30 C 0.39675(11) 1.00499(17) 0.5264(2)
C31 C 0.37769(11) 0.93478(17) 0.5976(2)
C32 C 0.39376(12) 0.84450(18) 0.5758(2)
C33 C 0.42652(13) 0.82363(18) 0.4868(3)
C34 C 0.44444(12) 0.8916(2) 0.4158(2)
C35 C 0.43020(11) 0.98079(18) 0.4342(2)
C36 C 0.45178(12) 1.0517(2) 0.3586(2)
C37 C 0.43728(11) 1.14667(19) 0.3832(2)
C38 C 0.45683(13) 1.2153(2) 0.3129(2)
C39 C 0.44511(14) 1.3042(2) 0.3346(3)
C40 C 0.41393(15) 1.32735(19) 0.4261(3)
C41 C 0.39413(12) 1.26125(19) 0.4966(2)
C42 C 0.40529(11) 1.16905(18) 0.4760(2)
C43 C 0.38363(11) 1.09714(16) 0.5492(2)
C44 C 0.35103(12) 1.11612(16) 0.6396(2)
C45 C 0.33219(12) 1.0476(2) 0.7102(2)
C46 C 0.34479(12) 0.95859(18) 0.6912(2)
C47 C 0.28575(14) 0.82610(19) 0.7443(3)
C48 C 0.24813(16) 0.8396(2) 0.6565(3)
C49 C 0.20518(16) 0.7756(3) 0.6340(3)
C50 C 0.19930(18) 0.7013(3) 0.6988(4)
C51 C 0.23710(19) 0.6871(2) 0.7843(3)
C52 C 0.28053(14) 0.7484(2) 0.8073(2)
C53 C 0.35322(14) 0.89891(16) 0.8770(3)
C54 C 0.41127(16) 0.91513(17) 0.8878(3)
C55 C 0.43616(18) 0.9233(2) 0.9918(5)
C56 C 0.4052(3) 0.9142(3) 1.0835(4)
C57 C 0.3475(2) 0.8988(2) 1.0742(3)
C58 C 0.32091(14) 0.89260(18) 0.9725(3)
H20 H 0.3803 0.7965 0.6262
H21 H 0.4379 0.7616 0.4767
H22 H 0.4684 0.8759 0.3523
H23 H 0.4784 1.1942 0.2464
H24 H 0.4587 1.3485 0.2859
H25 H 0.4053 1.3919 0.4462
H26 H 0.3721 1.2787 0.5642
H27 H 0.3420 1.1783 0.6604
H28 H 0.3094 1.0618 0.7722
H29 H 0.2524 0.8892 0.6102
H30 H 0.1822 0.7886 0.5730
H31 H 0.1710 0.6570 0.6877
H32 H 0.2357 0.6336 0.8304
H33 H 0.3078 0.7349 0.8670
H34 H 0.4360 0.9219 0.8219
H35 H 0.4767 0.9275 0.9814
H36 H 0.4183 0.9178 1.1513
H37 H 0.3260 0.8940 1.1396
H38 H 0.2822 0.8833 0.9611

#END
