
#######################################################################
#
#                 Cambridge Crystallographic Data Centre
#                                CCDC 
#
#######################################################################
#
# If this CIF has been generated from an entry in the Cambridge 
# Structural Database, then it will include bibliographic, chemical, 
# crystal, experimental, refinement or atomic coordinate data resulting 
# from the CCDC's data processing and validation procedures.
#
#######################################################################

data_LAFRUH
_symmetry_cell_setting           triclinic
_symmetry_space_group_name_H-M   'P -1'
_symmetry_Int_Tables_number      2
_space_group_name_Hall           '-P 1'
loop_
_symmetry_equiv_pos_site_id
_symmetry_equiv_pos_as_xyz
1 x,y,z
2 -x,-y,-z
_cell_length_a                   9.0053(8)
_cell_length_b                   9.2062(8)
_cell_length_c                   10.8409(16)
_cell_angle_alpha                96.902(2)
_cell_angle_beta                 94.445(2)
_cell_angle_gamma                115.893(2)
_cell_volume                     794.129
loop_
_atom_site_label
_atom_site_type_symbol
_atom_site_fract_x
_atom_site_fract_y
_atom_site_fract_z
C1 C 0.43675(10) 0.69021(8) 0.17646(7)
H1 H 0.4361 0.7151 0.2668
H2 H 0.3490 0.7064 0.1299
H3 H 0.5455 0.7632 0.1553
C2 C 0.40544(7) 0.51475(7) 0.14164(5)
C3 C 0.49569(7) 0.45208(7) 0.21584(5)
C4 C 0.60021(7) 0.53309(7) 0.33499(5)
C5 C 0.75181(8) 0.50116(8) 0.51082(6)
H4 H 0.6956 0.5319 0.5767
H5 H 0.8526 0.6002 0.5014
C6 C 0.79790(10) 0.37061(10) 0.54468(7)
H6 H 0.8548 0.3428 0.4792
H7 H 0.6966 0.2727 0.5518
H8 H 0.8723 0.4114 0.6251
C7 C 0.64716(7) 0.24124(7) 0.17804(5)
C8 C 0.78985(7) 0.35696(8) 0.14019(6)
H9 H 0.7864 0.4434 0.1022
C9 C 0.93738(8) 0.34312(9) 0.15928(6)
H10 H 1.0361 0.4213 0.1348
C10 C 0.94102(9) 0.21522(9) 0.21410(7)
H11 H 1.0423 0.2067 0.2272
C11 C 0.79697(9) 0.10007(9) 0.24967(7)
H12 H 0.7999 0.0125 0.2864
C12 C 0.64801(8) 0.11239(8) 0.23169(6)
H13 H 0.5491 0.0339 0.2558
C13 C 0.30342(7) 0.10277(7) 0.20533(5)
C14 C 0.15415(9) -0.01035(9) 0.37082(7)
H14 H 0.1435 -0.0065 0.4575
C15 C 0.29060(8) 0.11245(8) 0.33284(5)
H15 H 0.3730 0.2008 0.3925
C16 C 0.18327(8) -0.02515(8) 0.11629(6)
H16 H 0.1942 -0.0294 0.0296
C17 C 0.04693(9) -0.14670(8) 0.15583(7)
H17 H -0.0361 -0.2345 0.0962
C18 C 0.03292(9) -0.13900(9) 0.28288(7)
H18 H -0.0599 -0.2220 0.3100
O1 O 0.30118(6) 0.42608(6) 0.04901(5)
O2 O 0.64899(7) 0.67670(6) 0.38215(5)
O3 O 0.64073(6) 0.43091(6) 0.39356(4)
S1 S 0.460314(16) 0.260273(16) 0.141736(12)
C1 C 0.56325(10) 0.30979(8) 0.82354(7)
H1 H 0.5639 0.2849 0.7332
H2 H 0.6510 0.2936 0.8701
H3 H 0.4545 0.2368 0.8447
C2 C 0.59456(7) 0.48525(7) 0.85836(5)
C3 C 0.50431(7) 0.54792(7) 0.78416(5)
C4 C 0.39979(7) 0.46691(7) 0.66501(5)
C5 C 0.24819(8) 0.49884(8) 0.48918(6)
H4 H 0.3044 0.4681 0.4233
H5 H 0.1474 0.3998 0.4986
C6 C 0.20210(10) 0.62939(10) 0.45532(7)
H6 H 0.1452 0.6572 0.5208
H7 H 0.3034 0.7273 0.4482
H8 H 0.1277 0.5886 0.3749
C7 C 0.35284(7) 0.75876(7) 0.82196(5)
C8 C 0.21015(7) 0.64304(8) 0.85981(6)
H9 H 0.2136 0.5566 0.8978
C9 C 0.06262(8) 0.65688(9) 0.84072(6)
H10 H -0.0361 0.5787 0.8652
C10 C 0.05898(9) 0.78478(9) 0.78590(7)
H11 H -0.0423 0.7933 0.7728
C11 C 0.20303(9) 0.89993(9) 0.75033(7)
H12 H 0.2001 0.9875 0.7136
C12 C 0.35199(8) 0.88761(8) 0.76831(6)
H13 H 0.4509 0.9661 0.7442
C13 C 0.69658(7) 0.89723(7) 0.79467(5)
C14 C 0.84585(9) 1.01035(9) 0.62918(7)
H14 H 0.8565 1.0065 0.5425
C15 C 0.70940(8) 0.88755(8) 0.66716(5)
H15 H 0.6270 0.7992 0.6075
C16 C 0.81673(8) 1.02515(8) 0.88371(6)
H16 H 0.8058 1.0294 0.9704
C17 C 0.95307(9) 1.14670(8) 0.84417(7)
H17 H 1.0361 1.2345 0.9038
C18 C 0.96708(9) 1.13900(9) 0.71712(7)
H18 H 1.0599 1.2220 0.6900
O1 O 0.69882(6) 0.57392(6) 0.95099(5)
O2 O 0.35101(7) 0.32330(6) 0.61785(5)
O3 O 0.35927(6) 0.56909(6) 0.60644(4)
S1 S 0.539686(16) 0.739727(16) 0.858264(12)

#END
