
#######################################################################
#
#                 Cambridge Crystallographic Data Centre
#                                CCDC 
#
#######################################################################
#
# If this CIF has been generated from an entry in the Cambridge 
# Structural Database, then it will include bibliographic, chemical, 
# crystal, experimental, refinement or atomic coordinate data resulting 
# from the CCDC's data processing and validation procedures.
#
#######################################################################

data_LAFREP
_symmetry_cell_setting           triclinic
_symmetry_space_group_name_H-M   'P -1'
_symmetry_Int_Tables_number      2
_space_group_name_Hall           '-P 1'
loop_
_symmetry_equiv_pos_site_id
_symmetry_equiv_pos_as_xyz
1 x,y,z
2 -x,-y,-z
_cell_length_a                   8.014(2)
_cell_length_b                   11.887(11)
_cell_length_c                   13.535(12)
_cell_angle_alpha                72.02(7)
_cell_angle_beta                 88.31(7)
_cell_angle_gamma                70.60(7)
_cell_volume                     1152.94
loop_
_atom_site_label
_atom_site_type_symbol
_atom_site_fract_x
_atom_site_fract_y
_atom_site_fract_z
V1 V 0.2926(1) 0.8424(1) 0.8934(1)
O1 O 0.2455(5) 0.8222(3) 1.0120(3)
O2 O 0.2101(4) 0.7122(3) 0.8620(3)
O3 O 0.2929(5) 0.5176(3) 0.8497(3)
O4 O 0.4781(5) 0.9251(3) 0.8926(3)
O5 O 0.7690(5) 0.8948(3) 0.9030(3)
O6 O 0.2970(4) 0.9175(3) 0.7242(3)
N1 N 0.5232(5) 0.7056(3) 0.8903(3)
N2 N 0.0546(6) 0.9999(4) 0.8394(3)
N3 N 0.0321(6) 1.0548(4) 0.7290(3)
C1 C 0.5162(6) 0.5995(4) 0.8783(3)
C2 C 0.6724(7) 0.5040(5) 0.8773(4)
C3 C 0.8338(7) 0.5232(5) 0.8860(4)
C4 C 0.8368(7) 0.6362(5) 0.8952(4)
C5 C 0.6762(7) 0.7258(4) 0.8972(4)
C6 C 0.3282(7) 0.6061(5) 0.8627(4)
C7 C 0.6439(7) 0.8597(5) 0.8981(4)
C8 C 0.1659(7) 1.0065(4) 0.6766(4)
C9 C 0.1460(7) 1.0606(4) 0.5613(4)
C10 C 0.0036(7) 1.1619(5) 0.5059(4)
C11 C -0.0099(8) 1.2052(5) 0.3977(4)
C12 C 0.1228(8) 1.1448(5) 0.3455(4)
C13 C 0.2682(8) 1.0448(6) 0.3991(4)
C14 C 0.2819(7) 1.0023(5) 0.5067(4)
H1 H 0.6699 0.4264 0.8708
H2 H 0.9433 0.4580 0.8855
H3 H 0.9465 0.6509 0.8999
H4 H -0.0879 1.2035 0.5427
H5 H -0.1099 1.2758 0.3599
H6 H 0.1135 1.1730 0.2706
H7 H 0.3601 1.0045 0.3616
H8 H 0.3838 0.9331 0.5443
H9 H -0.0373(64) 0.9767(43) 0.8546(36)
H10 H 0.067(10) 1.0573(72) 0.8641(61)
H11 H -0.0694(62) 1.1044(43) 0.7047(35)
V1 V 0.7074(1) 0.1576(1) 0.1066(1)
O1 O 0.7545(5) 0.1778(3) -0.0120(3)
O2 O 0.7899(4) 0.2878(3) 0.1380(3)
O3 O 0.7071(5) 0.4824(3) 0.1503(3)
O4 O 0.5219(5) 0.0749(3) 0.1074(3)
O5 O 0.2310(5) 0.1052(3) 0.0970(3)
O6 O 0.7030(4) 0.0825(3) 0.2758(3)
N1 N 0.4768(5) 0.2944(3) 0.1097(3)
N2 N 0.9454(6) 0.0001(4) 0.1606(3)
N3 N 0.9679(6) -0.0548(4) 0.2710(3)
C1 C 0.4838(6) 0.4005(4) 0.1217(3)
C2 C 0.3276(7) 0.4960(5) 0.1227(4)
C3 C 0.1662(7) 0.4768(5) 0.1140(4)
C4 C 0.1632(7) 0.3638(5) 0.1048(4)
C5 C 0.3238(7) 0.2742(4) 0.1028(4)
C6 C 0.6718(7) 0.3939(5) 0.1373(4)
C7 C 0.3561(7) 0.1403(5) 0.1019(4)
C8 C 0.8341(7) -0.0065(4) 0.3234(4)
C9 C 0.8540(7) -0.0606(4) 0.4387(4)
C10 C 0.9964(7) -0.1619(5) 0.4941(4)
C11 C 1.0099(8) -0.2052(5) 0.6023(4)
C12 C 0.8772(8) -0.1448(5) 0.6545(4)
C13 C 0.7318(8) -0.0448(6) 0.6009(4)
C14 C 0.7181(7) -0.0023(5) 0.4933(4)
H1 H 0.3301 0.5736 0.1292
H2 H 0.0567 0.5420 0.1145
H3 H 0.0535 0.3491 0.1001
H4 H 1.0879 -0.2035 0.4573
H5 H 1.1099 -0.2758 0.6401
H6 H 0.8865 -0.1730 0.7294
H7 H 0.6399 -0.0045 0.6384
H8 H 0.6162 0.0669 0.4557
H9 H 1.0373(64) 0.0233(43) 0.1454(36)
H10 H 0.933(10) -0.0573(72) 0.1359(61)
H11 H 1.0694(62) -0.1044(43) 0.2953(35)
O7 O 0.6896(5) 0.2042(3) 0.6946(3)
N4 N 0.4367(8) 0.1951(5) 0.8349(5)
N5 N 0.4719(7) 0.3049(5) 0.7759(4)
C15 C 0.5991(7) 0.3024(5) 0.7108(4)
C16 C 0.6253(7) 0.4258(5) 0.6562(4)
C17 C 0.4820(8) 0.5349(5) 0.6174(4)
C18 C 0.5103(10) 0.6475(5) 0.5666(5)
C19 C 0.6787(11) 0.6496(6) 0.5561(5)
C20 C 0.8217(10) 0.5399(7) 0.5956(6)
C21 C 0.7948(8) 0.4282(6) 0.6447(5)
H12 H 0.3634 0.5332 0.6255
H13 H 0.4110 0.7236 0.5390
H14 H 0.6983 0.7273 0.5212
H15 H 0.9404 0.5417 0.5888
H16 H 0.8944 0.3519 0.6709
H17 H 0.4322(97) 0.1485(70) 0.7819(59)
H18 H 0.5289(93) 0.1485(65) 0.8795(55)
H19 H 0.4282(60) 0.3545(40) 0.7912(35)
O7 O 0.3104(5) 0.7958(3) 0.3054(3)
N4 N 0.5633(8) 0.8049(5) 0.1651(5)
N5 N 0.5281(7) 0.6951(5) 0.2241(4)
C15 C 0.4009(7) 0.6976(5) 0.2892(4)
C16 C 0.3747(7) 0.5742(5) 0.3438(4)
C17 C 0.5180(8) 0.4651(5) 0.3826(4)
C18 C 0.4897(10) 0.3525(5) 0.4334(5)
C19 C 0.3213(11) 0.3504(6) 0.4439(5)
C20 C 0.1783(10) 0.4601(7) 0.4044(6)
C21 C 0.2052(8) 0.5718(6) 0.3553(5)
H12 H 0.6366 0.4668 0.3745
H13 H 0.5890 0.2764 0.4610
H14 H 0.3017 0.2727 0.4788
H15 H 0.0596 0.4583 0.4112
H16 H 0.1056 0.6481 0.3291
H17 H 0.5678(97) 0.8515(70) 0.2181(59)
H18 H 0.4711(93) 0.8515(65) 0.1205(55)
H19 H 0.5718(60) 0.6455(40) 0.2088(35)
O8 O 0.0710(8) 0.2249(4) 0.8757(4)
H20 H 0.1944(82) 0.2164(52) 0.8725(44)
H21 H 0.028(14) 0.217(10) 0.9214(81)
O8 O 0.9290(8) 0.7751(4) 0.1243(4)
H20 H 0.8056(82) 0.7836(52) 0.1275(44)
H21 H 0.972(14) 0.783(10) 0.0786(81)

#END
