./LAFSES_from_POSCAR.cif_generated_by_CrystalShift
_symmetry_cell_setting triclinic
_symmetry_space_group_name_H-M 'P 1'
loop_
_symmetry_equiv_pos_site_id
_symmetry_equiv_pos_as_xyz
1 x,y,z
_cell_length_a 10.092100
_cell_length_b 10.124800
_cell_length_c 14.790300
_cell_angle_alpha 90.000000
_cell_angle_beta 95.757000
_cell_angle_gamma 90.000000
_cell_volume 1503.657673
loop_
_atom_site_label
_atom_site_type_symbol
_atom_site_fract_x
_atom_site_fract_y
_atom_site_fract_z
H1 H 0.820000 -0.120800 0.614600
H2 H 0.705700 0.879100 -0.050700
H3 H 0.639100 0.985300 0.010900
H4 H 0.552700 0.864400 -0.032600
H5 H 0.539300 0.945200 0.762900
H6 H 0.577000 0.502800 0.678800
H7 H 0.145800 0.893300 0.996300
H8 H 0.100100 0.744000 0.976200
H9 H 0.500900 0.636900 0.446400
H10 H 0.600100 0.756000 0.476200
H11 H 0.645800 0.606700 0.496300
H12 H 0.000900 0.863100 0.946400
H13 H 1.077000 0.997200 0.178800
H14 H 0.052700 0.635600 0.467400
H15 H 1.039300 0.554800 0.262900
H16 H 0.139100 0.514700 0.510900
H17 H 0.205700 0.620900 0.449300
H18 H 1.267400 0.878100 0.229700
H19 H 0.404700 0.862000 0.543600
H20 H 0.904700 0.638000 0.043600
H21 H 0.748300 0.842900 0.772600
H22 H 0.442600 0.668800 0.993700
H23 H 1.248300 0.657100 0.272600
H24 H 0.395100 0.561700 0.854100
H25 H 0.855100 0.530500 -0.096300
H26 H 0.320000 0.620800 1.114600
H27 H 0.866700 0.896900 0.168200
H28 H 0.133300 0.103100 0.831800
H29 H 0.680000 0.379200 -0.114600
H30 H 0.144900 0.469500 1.096300
H31 H 0.604900 0.438300 0.145900
H32 H -0.248300 0.342900 0.727400
H33 H 0.557400 0.331200 0.006300
H34 H 0.057400 1.168800 0.506300
H35 H 0.095300 0.362000 0.956400
H36 H 0.104900 1.061700 0.645900
H37 H -0.267400 0.121900 0.770300
H38 H 0.180000 1.120800 0.385400
H39 H -0.039300 0.445200 0.737100
H40 H 0.794300 0.379100 0.550700
H41 H 0.860900 0.485300 0.489100
H42 H 0.947300 0.364400 0.532600
H43 H -0.077000 0.002800 0.821200
H44 H 0.354200 0.393300 0.503700
H45 H 0.399900 0.244000 0.523800
H46 H 0.499100 0.363100 0.553600
H47 H 0.999100 0.136900 0.053600
H48 H 0.899900 0.256000 0.023800
H49 H 0.854200 0.106700 0.003700
H50 H 0.447300 0.135600 1.032600
H51 H 0.423000 0.497200 0.321200
H52 H 0.360900 0.014700 0.989100
H53 H 0.460700 0.054800 0.237100
H54 H 0.294300 0.120900 1.050700
H55 H 0.355100 0.969500 0.403700
H56 H 0.232600 0.378100 0.270300
H57 H 0.366700 0.603100 0.668200
H58 H 0.595300 0.138000 0.456400
H59 H 0.942600 -0.168800 0.493700
H60 H 0.895100 -0.061700 0.354100
H61 H 0.251700 0.157100 0.227400
H62 H 0.767400 0.621900 0.729700
H63 H 0.644900 0.030500 0.596300
H64 H 0.633300 0.396900 0.331800
C65 C 0.555730 0.348090 0.311060
C66 C 0.799400 -0.077900 0.557750
C67 C 0.695800 0.012400 0.547090
C68 C 0.844790 -0.042500 0.403490
C69 C 0.329130 0.205600 0.248860
C70 C 0.872600 -0.105800 0.486210
C71 C 0.564530 0.216510 0.286680
C72 C 0.200600 1.077900 0.442250
C73 C 0.666500 0.076400 0.464450
C74 C 0.444270 0.651910 0.688940
C75 C 0.317540 0.336900 0.274020
C76 C 0.304200 0.987600 0.452910
C77 C 0.358700 0.108200 1.006080
C78 C 0.742710 0.048820 0.393870
C79 C 0.452820 0.144500 0.254710
C80 C 0.430700 0.407100 0.304480
C81 C 0.402250 0.182420 0.859270
C82 C 0.351680 0.261550 0.782280
C83 C 0.414300 0.258870 0.698660
C84 C 0.405700 0.334800 0.546740
C85 C 0.905700 0.165200 0.046740
C86 C 0.914300 0.241130 0.198660
C87 C 0.851680 0.238450 0.282280
C88 C -0.069300 0.092900 0.804480
C89 C 0.902250 0.317580 0.359270
C90 C -0.047180 0.355500 0.754710
C91 C 0.858700 0.391800 0.506080
C92 C 0.242710 0.451180 0.893870
C93 C -0.182460 0.163100 0.774020
C94 C 0.155210 1.042500 0.596510
C95 C 0.166500 0.423600 0.964450
C96 C 0.127400 1.105800 0.513790
C97 C 0.064530 0.283490 0.786680
C98 C -0.170870 0.294400 0.748860
C99 C 0.627400 0.394200 0.013790
C100 C 0.195800 0.487600 1.047090
C101 C 0.655210 0.457500 0.096510
C102 C 0.055730 0.151910 0.811060
C103 C 0.700600 0.422100 -0.057750
C104 C 0.299400 0.577900 1.057750
C105 C 0.944270 0.848090 0.188940
C106 C 0.344790 0.542500 0.903490
C107 C 0.804200 0.512400 -0.047090
C108 C 0.372600 0.605800 0.986210
C109 C 1.170870 0.705600 0.251140
C110 C 0.935470 0.716510 0.213320
C111 C 0.670870 0.794400 0.751140
C112 C 0.435470 0.783490 0.713320
C113 C 0.833500 0.576400 0.035550
C114 C 0.333500 0.923600 0.535550
C115 C 0.141300 0.608200 0.493920
C116 C 1.182460 0.836900 0.225980
C117 C 0.757290 0.548820 0.106130
C118 C 1.047180 0.644500 0.245290
C119 C 0.097750 0.682420 0.640730
C120 C 0.148320 0.761550 0.717720
C121 C 0.085700 0.758870 0.801340
C122 C 0.094300 0.834800 0.953260
C123 C 1.069300 0.907100 0.195520
C124 C 0.594300 0.665200 0.453260
C125 C 0.585700 0.741130 0.301340
C126 C 0.569300 0.592900 0.695520
C127 C 0.648320 0.738450 0.217720
C128 C 0.547180 0.855500 0.745290
C129 C 0.597750 0.817580 0.140730
C130 C 0.257290 0.951180 0.606130
C131 C 0.682460 0.663100 0.725980
C132 C 0.641300 0.891800 -0.006080
O133 O 1.005690 0.380530 0.367530
O134 O 0.352810 0.340760 0.633570
O135 O 0.319940 0.186290 0.926700
O136 O 0.509620 0.192720 0.683550
O137 O 0.505690 0.119470 0.867530
O138 O 0.180060 0.686290 0.573300
O139 O 0.852810 0.159240 0.133570
O140 O 0.819940 0.313710 0.426700
O141 O 1.009620 0.307280 0.183550
O142 O 0.147190 0.840760 0.866430
O143 O -0.009620 0.692720 0.816450
O144 O 0.647190 0.659240 0.366430
O145 O 0.680060 0.813710 0.073300
O146 O 0.490380 0.807280 0.316450
O147 O 0.494310 0.880530 0.132470
O148 O -0.005690 0.619470 0.632470
S149 S 0.720030 0.130710 0.285780
S150 S 0.220030 0.369290 0.785780
S151 S 0.779970 0.630710 0.214220
S152 S 0.279970 0.869290 0.714220

#END
