./LAFSOA_from_POSCAR.cif_generated_by_CrystalShift
_symmetry_cell_setting triclinic
_symmetry_space_group_name_H-M 'P 1'
loop_
_symmetry_equiv_pos_site_id
_symmetry_equiv_pos_as_xyz
1 x,y,z
_cell_length_a 8.394000
_cell_length_b 8.540000
_cell_length_c 10.415000
_cell_angle_alpha 71.640000
_cell_angle_beta 81.600000
_cell_angle_gamma 66.500000
_cell_volume 649.641585
loop_
_atom_site_label
_atom_site_type_symbol
_atom_site_fract_x
_atom_site_fract_y
_atom_site_fract_z
H1 H 1.352900 0.432000 0.895500
H2 H 1.156200 0.578600 0.948000
H3 H 1.348400 0.892500 0.698500
H4 H 1.461500 0.700300 0.825900
H5 H 1.256800 0.850600 0.863200
H6 H 1.271800 0.538200 0.612600
H7 H 1.469700 0.496300 0.681000
H8 H 1.371700 0.695300 0.553600
H9 H 0.603900 1.164200 0.626700
H10 H 0.505100 1.153500 0.789100
H11 H 0.587600 0.962900 0.730100
H12 H 0.704100 1.266700 0.846900
H13 H 0.803000 1.277300 0.684500
H14 H 0.091900 0.138800 0.020900
H15 H 0.318800 0.030600 0.004400
H16 H 0.233400 0.215600 0.070000
H17 H 0.069200 -0.157600 0.170200
H18 H 0.197000 -0.277300 0.315500
H19 H 0.295900 -0.266700 0.153100
H20 H 0.412400 0.037100 0.269900
H21 H 0.494900 -0.153500 0.210900
H22 H 0.396100 -0.164200 0.373300
H23 H -0.371700 0.304700 0.446400
H24 H -0.469700 0.503700 0.319000
H25 H -0.271800 0.461800 0.387400
H26 H -0.256800 0.149400 0.136800
H27 H -0.461500 0.299700 0.174100
H28 H -0.348400 0.107500 0.301500
H29 H -0.156200 0.421400 0.052000
H30 H -0.154900 0.526200 0.173000
H31 H -0.352900 0.568000 0.104500
H32 H 0.930800 1.157600 0.829800
H33 H 0.766600 0.784400 0.930000
H34 H 0.681200 0.969400 0.995600
H35 H 0.908100 0.861200 0.979100
H36 H 1.154900 0.473800 0.827000
C37 C 0.781000 1.028000 0.789000
C38 C 0.785000 0.901000 0.935000
C39 C 0.807000 1.194000 0.787000
C40 C 0.607000 1.081000 0.729000
C41 C 1.247000 0.689000 0.749000
C42 C 1.347000 0.598000 0.641000
C43 C 1.334000 0.790000 0.787000
C44 C 1.226000 0.531000 0.864000
C45 C 0.219000 -0.028000 0.211000
C46 C 0.215000 0.099000 0.065000
C47 C 0.193000 -0.194000 0.213000
C48 C 0.393000 -0.081000 0.271000
C49 C -0.226000 0.469000 0.136000
C50 C -0.334000 0.210000 0.213000
C51 C -0.347000 0.402000 0.359000
C52 C -0.247000 0.311000 0.251000
N53 N 0.068000 0.099000 0.533000
N54 N 0.185000 0.361000 0.441000
N55 N 0.932000 0.901000 0.467000
N56 N 0.815000 0.639000 0.559000
S57 S 0.847600 0.786600 0.436200
S58 S 0.135500 0.383600 0.285600
S59 S 0.152400 0.213400 0.563800
S60 S 0.864500 0.616400 0.714400
Sn61 Sn 0.987100 0.867200 0.671430
Sn62 Sn 0.012900 0.132800 0.328570

#END
