
#######################################################################
#
#                 Cambridge Crystallographic Data Centre
#                                CCDC 
#
#######################################################################
#
# If this CIF has been generated from an entry in the Cambridge 
# Structural Database, then it will include bibliographic, chemical, 
# crystal, experimental, refinement or atomic coordinate data resulting 
# from the CCDC's data processing and validation procedures.
#
#######################################################################

data_LAFSUI
_symmetry_cell_setting           monoclinic
_symmetry_space_group_name_H-M   'P 21/c'
_symmetry_Int_Tables_number      14
_space_group_name_Hall           '-P 2ybc'
loop_
_symmetry_equiv_pos_site_id
_symmetry_equiv_pos_as_xyz
1 x,y,z
2 -x,1/2+y,1/2-z
3 -x,-y,-z
4 x,1/2-y,1/2+z
_cell_length_a                   10.2459(6)
_cell_length_b                   20.3870(11)
_cell_length_c                   8.1212(5)
_cell_angle_alpha                90
_cell_angle_beta                 102.949(2)
_cell_angle_gamma                90
_cell_volume                     1653.24
loop_
_atom_site_label
_atom_site_type_symbol
_atom_site_fract_x
_atom_site_fract_y
_atom_site_fract_z
C1 C 0.73071(14) 0.13799(7) 0.95044(18)
C2 C 0.82198(14) 0.17613(7) 1.07286(18)
C3 C 0.71011(14) 0.06959(7) 0.95589(18)
C4 C 0.92670(14) 0.14043(7) 1.20087(18)
C5 C 0.99098(14) 0.08388(8) 1.1635(2)
H1 H 0.9725 0.0673 1.0514
C6 C 1.08199(15) 0.05181(8) 1.2905(2)
H2 H 1.1259 0.0133 1.2651
C7 C 1.10885(15) 0.07595(8) 1.4541(2)
H3 H 1.1695 0.0534 1.5413
C8 C 1.04748(15) 0.13290(8) 1.4908(2)
H4 H 1.0672 0.1498 1.6027
C9 C 0.95710(14) 0.16544(8) 1.36415(19)
H5 H 0.9160 0.2048 1.3892
C10 C 0.46278(14) 0.18892(7) 0.84643(18)
C11 C 0.40556(15) 0.13734(7) 0.91746(18)
H6 H 0.4524 0.0971 0.9443
C12 C 0.27891(15) 0.14567(7) 0.94846(19)
H7 H 0.2383 0.1110 0.9971
C13 C 0.21118(15) 0.20475(8) 0.90844(19)
H8 H 0.1245 0.2102 0.9302
C14 C 0.26913(15) 0.25559(7) 0.83723(19)
H9 H 0.2220 0.2957 0.8096
C15 C 0.39610(15) 0.24803(7) 0.80611(18)
H10 H 0.4367 0.2828 0.7579
C16 C 0.59506(14) 0.13130(7) 0.61595(18)
C17 C 0.70757(15) 0.11455(7) 0.55572(19)
H11 H 0.7940 0.1292 0.6124
C18 C 0.69137(16) 0.07626(7) 0.41184(19)
H12 H 0.7674 0.0639 0.3702
C19 C 0.56455(15) 0.05585(7) 0.32800(19)
H13 H 0.5540 0.0296 0.2292
C20 C 0.45372(15) 0.07371(8) 0.38817(19)
H14 H 0.3671 0.0599 0.3299
C21 C 0.46808(15) 0.11163(7) 0.53312(19)
H15 H 0.3920 0.1239 0.5747
N1 N 0.69131(13) 0.01382(6) 0.95844(16)
O1 O 0.81477(11) 0.23667(5) 1.07832(13)
S1 S 0.62449(3) 0.184086(16) 0.79746(4)
C1 C 0.26929(14) 0.63799(7) 0.54956(18)
C2 C 0.17802(14) 0.67613(7) 0.42714(18)
C3 C 0.28989(14) 0.56959(7) 0.54411(18)
C4 C 0.07330(14) 0.64043(7) 0.29913(18)
C5 C 0.00902(14) 0.58388(8) 0.3365(2)
H1 H 0.0275 0.5673 0.4486
C6 C -0.08199(15) 0.55181(8) 0.2095(2)
H2 H -0.1259 0.5133 0.2349
C7 C -0.10885(15) 0.57595(8) 0.0459(2)
H3 H -0.1695 0.5534 -0.0413
C8 C -0.04748(15) 0.63290(8) 0.0092(2)
H4 H -0.0672 0.6498 -0.1027
C9 C 0.04290(14) 0.66544(8) 0.13585(19)
H5 H 0.0840 0.7048 0.1108
C10 C 0.53722(14) 0.68892(7) 0.65357(18)
C11 C 0.59444(15) 0.63734(7) 0.58254(18)
H6 H 0.5476 0.5971 0.5557
C12 C 0.72109(15) 0.64567(7) 0.55154(19)
H7 H 0.7617 0.6110 0.5029
C13 C 0.78882(15) 0.70475(8) 0.59156(19)
H8 H 0.8755 0.7102 0.5698
C14 C 0.73087(15) 0.75559(7) 0.66277(19)
H9 H 0.7780 0.7957 0.6904
C15 C 0.60390(15) 0.74803(7) 0.69389(18)
H10 H 0.5633 0.7828 0.7421
C16 C 0.40494(14) 0.63130(7) 0.88405(18)
C17 C 0.29243(15) 0.61455(7) 0.94428(19)
H11 H 0.2060 0.6292 0.8876
C18 C 0.30863(16) 0.57626(7) 1.08816(19)
H12 H 0.2326 0.5639 1.1298
C19 C 0.43545(15) 0.55585(7) 1.17200(19)
H13 H 0.4460 0.5296 1.2708
C20 C 0.54628(15) 0.57371(8) 1.11183(19)
H14 H 0.6329 0.5599 1.1701
C21 C 0.53192(15) 0.61163(7) 0.96688(19)
H15 H 0.6080 0.6239 0.9253
N1 N 0.30869(13) 0.51382(6) 0.54156(16)
O1 O 0.18523(11) 0.73667(5) 0.42168(13)
S1 S 0.37551(3) 0.684086(16) 0.70254(4)
C1 C 0.26929(14) 0.86201(7) 0.04956(18)
C2 C 0.17802(14) 0.82387(7) -0.07286(18)
C3 C 0.28989(14) 0.93041(7) 0.04411(18)
C4 C 0.07330(14) 0.85957(7) -0.20087(18)
C5 C 0.00902(14) 0.91612(8) -0.1635(2)
H1 H 0.0275 0.9327 -0.0514
C6 C -0.08199(15) 0.94819(8) -0.2905(2)
H2 H -0.1259 0.9867 -0.2651
C7 C -0.10885(15) 0.92405(8) -0.4541(2)
H3 H -0.1695 0.9466 -0.5413
C8 C -0.04748(15) 0.86710(8) -0.4908(2)
H4 H -0.0672 0.8502 -0.6027
C9 C 0.04290(14) 0.83456(8) -0.36415(19)
H5 H 0.0840 0.7952 -0.3892
C10 C 0.53722(14) 0.81108(7) 0.15357(18)
C11 C 0.59444(15) 0.86266(7) 0.08254(18)
H6 H 0.5476 0.9029 0.0557
C12 C 0.72109(15) 0.85433(7) 0.05154(19)
H7 H 0.7617 0.8890 0.0029
C13 C 0.78882(15) 0.79525(8) 0.09156(19)
H8 H 0.8755 0.7898 0.0698
C14 C 0.73087(15) 0.74441(7) 0.16277(19)
H9 H 0.7780 0.7043 0.1904
C15 C 0.60390(15) 0.75197(7) 0.19389(18)
H10 H 0.5633 0.7172 0.2421
C16 C 0.40494(14) 0.86870(7) 0.38405(18)
C17 C 0.29243(15) 0.88545(7) 0.44428(19)
H11 H 0.2060 0.8708 0.3876
C18 C 0.30863(16) 0.92374(7) 0.58816(19)
H12 H 0.2326 0.9361 0.6298
C19 C 0.43545(15) 0.94415(7) 0.67200(19)
H13 H 0.4460 0.9704 0.7708
C20 C 0.54628(15) 0.92629(8) 0.61183(19)
H14 H 0.6329 0.9401 0.6701
C21 C 0.53192(15) 0.88837(7) 0.46688(19)
H15 H 0.6080 0.8761 0.4253
N1 N 0.30869(13) 0.98618(6) 0.04156(16)
O1 O 0.18523(11) 0.76333(5) -0.07832(13)
S1 S 0.37551(3) 0.815914(16) 0.20254(4)
C1 C 0.73071(14) 0.36201(7) 0.45044(18)
C2 C 0.82198(14) 0.32387(7) 0.57286(18)
C3 C 0.71011(14) 0.43041(7) 0.45589(18)
C4 C 0.92670(14) 0.35957(7) 0.70087(18)
C5 C 0.99098(14) 0.41612(8) 0.6635(2)
H1 H 0.9725 0.4327 0.5514
C6 C 1.08199(15) 0.44819(8) 0.7905(2)
H2 H 1.1259 0.4867 0.7651
C7 C 1.10885(15) 0.42405(8) 0.9541(2)
H3 H 1.1695 0.4466 1.0413
C8 C 1.04748(15) 0.36710(8) 0.9908(2)
H4 H 1.0672 0.3502 1.1027
C9 C 0.95710(14) 0.33456(8) 0.86415(19)
H5 H 0.9160 0.2952 0.8892
C10 C 0.46278(14) 0.31108(7) 0.34643(18)
C11 C 0.40556(15) 0.36266(7) 0.41746(18)
H6 H 0.4524 0.4029 0.4443
C12 C 0.27891(15) 0.35433(7) 0.44846(19)
H7 H 0.2383 0.3890 0.4971
C13 C 0.21118(15) 0.29525(8) 0.40844(19)
H8 H 0.1245 0.2898 0.4302
C14 C 0.26913(15) 0.24441(7) 0.33723(19)
H9 H 0.2220 0.2043 0.3096
C15 C 0.39610(15) 0.25197(7) 0.30611(18)
H10 H 0.4367 0.2172 0.2579
C16 C 0.59506(14) 0.36870(7) 0.11595(18)
C17 C 0.70757(15) 0.38545(7) 0.05572(19)
H11 H 0.7940 0.3708 0.1124
C18 C 0.69137(16) 0.42374(7) -0.08816(19)
H12 H 0.7674 0.4361 -0.1298
C19 C 0.56455(15) 0.44415(7) -0.17200(19)
H13 H 0.5540 0.4704 -0.2708
C20 C 0.45372(15) 0.42629(8) -0.11183(19)
H14 H 0.3671 0.4401 -0.1701
C21 C 0.46808(15) 0.38837(7) 0.03312(19)
H15 H 0.3920 0.3761 0.0747
N1 N 0.69131(13) 0.48618(6) 0.45844(16)
O1 O 0.81477(11) 0.26333(5) 0.57832(13)
S1 S 0.62449(3) 0.315914(16) 0.29746(4)

#END
