
#######################################################################
#
#                 Cambridge Crystallographic Data Centre
#                                CCDC 
#
#######################################################################
#
# If this CIF has been generated from an entry in the Cambridge 
# Structural Database, then it will include bibliographic, chemical, 
# crystal, experimental, refinement or atomic coordinate data resulting 
# from the CCDC's data processing and validation procedures.
#
#######################################################################

data_LAFSAO
_symmetry_cell_setting           triclinic
_symmetry_space_group_name_H-M   'P -1'
_symmetry_Int_Tables_number      2
_space_group_name_Hall           '-P 1'
loop_
_symmetry_equiv_pos_site_id
_symmetry_equiv_pos_as_xyz
1 x,y,z
2 -x,-y,-z
_cell_length_a                   8.8317(8)
_cell_length_b                   9.0906(8)
_cell_length_c                   21.1178(18)
_cell_angle_alpha                88.169(2)
_cell_angle_beta                 82.969(2)
_cell_angle_gamma                61.0050(10)
_cell_volume                     1471.06
loop_
_atom_site_label
_atom_site_type_symbol
_atom_site_fract_x
_atom_site_fract_y
_atom_site_fract_z
C1 C 0.75194(10) 0.06706(9) 0.09679(4)
C2 C 0.84475(11) -0.06316(10) 0.04703(4)
C3 C 0.78110(13) -0.03825(12) -0.01832(4)
H1 H 0.8606 -0.1360 -0.0464
H2 H 0.7779 0.0633 -0.0368
H3 H 0.6638 -0.0261 -0.0138
C4 C 0.80446(10) 0.06730(10) 0.15920(4)
C5 C 0.97121(12) -0.07780(12) 0.17768(5)
H4 H 0.9898 -0.0545 0.2202
H5 H 1.0696 -0.0917 0.1466
H6 H 0.9623 -0.1812 0.1782
C6 C 0.37657(10) 0.27547(10) 0.12616(4)
C7 C 0.37763(11) 0.14817(10) 0.16469(4)
H7 H 0.4846 0.0512 0.1709
C8 C 0.21955(11) 0.16471(11) 0.19411(4)
H8 H 0.2186 0.0778 0.2201
C9 C 0.06316(12) 0.30819(12) 0.18552(5)
H9 H -0.0444 0.3182 0.2050
C10 C 0.06456(12) 0.43697(12) 0.14837(5)
H10 H -0.0419 0.5365 0.1439
C11 C 0.22076(11) 0.42095(11) 0.11770(4)
H11 H 0.2215 0.5075 0.0914
C12 C 0.58960(11) 0.42748(9) 0.09286(4)
C13 C 0.49736(12) 0.53883(11) 0.14457(4)
H12 H 0.4215 0.5192 0.1752
C14 C 0.51871(13) 0.68006(11) 0.15043(5)
H13 H 0.4569 0.7578 0.1854
C15 C 0.63049(12) 0.70706(11) 0.10511(5)
H14 H 0.6433 0.8042 0.1090
C16 C 0.72364(12) 0.59300(11) 0.05417(5)
H15 H 0.8013 0.6113 0.0239
C17 C 0.70309(11) 0.45192(10) 0.04750(4)
H16 H 0.7653 0.3739 0.0127
O1 O 0.97519(9) -0.19750(8) 0.05634(3)
O2 O 0.71413(9) 0.18667(8) 0.19790(3)
S1 S 0.56994(3) 0.24552(2) 0.076771(9)
C1 C 0.24806(10) 0.93294(9) 0.90321(4)
C2 C 0.15525(11) 1.06316(10) 0.95297(4)
C3 C 0.21890(13) 1.03825(12) 1.01832(4)
H1 H 0.1394 1.1360 1.0464
H2 H 0.2221 0.9367 1.0368
H3 H 0.3362 1.0261 1.0138
C4 C 0.19554(10) 0.93270(10) 0.84080(4)
C5 C 0.02879(12) 1.07780(12) 0.82232(5)
H4 H 0.0102 1.0545 0.7798
H5 H -0.0696 1.0917 0.8534
H6 H 0.0377 1.1812 0.8218
C6 C 0.62343(10) 0.72453(10) 0.87384(4)
C7 C 0.62237(11) 0.85183(10) 0.83531(4)
H7 H 0.5154 0.9488 0.8291
C8 C 0.78045(11) 0.83529(11) 0.80589(4)
H8 H 0.7814 0.9222 0.7799
C9 C 0.93684(12) 0.69181(12) 0.81448(5)
H9 H 1.0444 0.6818 0.7950
C10 C 0.93544(12) 0.56303(12) 0.85163(5)
H10 H 1.0419 0.4635 0.8561
C11 C 0.77924(11) 0.57905(11) 0.88230(4)
H11 H 0.7785 0.4925 0.9086
C12 C 0.41040(11) 0.57252(9) 0.90714(4)
C13 C 0.50264(12) 0.46117(11) 0.85543(4)
H12 H 0.5785 0.4808 0.8248
C14 C 0.48129(13) 0.31994(11) 0.84957(5)
H13 H 0.5431 0.2422 0.8146
C15 C 0.36951(12) 0.29294(11) 0.89489(5)
H14 H 0.3567 0.1958 0.8910
C16 C 0.27636(12) 0.40700(11) 0.94583(5)
H15 H 0.1987 0.3887 0.9761
C17 C 0.29691(11) 0.54808(10) 0.95250(4)
H16 H 0.2347 0.6261 0.9873
O1 O 0.02481(9) 1.19750(8) 0.94366(3)
O2 O 0.28587(9) 0.81333(8) 0.80210(3)
S1 S 0.43006(3) 0.75448(2) 0.923229(9)
C18 C 0.47798(10) 0.82501(10) 0.40213(4)
C19 C 0.58995(11) 0.78565(11) 0.45172(4)
C20 C 0.53741(13) 0.74142(14) 0.51789(5)
H17 H 0.6305 0.7132 0.5446
H18 H 0.5181 0.6447 0.5144
H19 H 0.4297 0.8379 0.5373
C21 C 0.50341(11) 0.87969(11) 0.33817(4)
C22 C 0.65375(14) 0.91361(16) 0.31894(6)
H20 H 0.7632 0.8068 0.3139
H21 H 0.6580 0.9842 0.3520
H22 H 0.6376 0.9719 0.2784
C23 C 0.10910(10) 1.02078(10) 0.40688(4)
C24 C 0.07343(11) 1.14984(11) 0.44980(4)
H23 H 0.1426 1.1294 0.4835
C25 C -0.06532(13) 1.30937(11) 0.44251(5)
H24 H -0.0906 1.3993 0.4710
C26 C -0.16701(12) 1.33714(11) 0.39342(5)
H25 H -0.2630 1.4457 0.3892
C27 C -0.12935(12) 1.20727(12) 0.35048(5)
H26 H -0.1988 1.2276 0.3169
C28 C 0.01049(11) 1.04720(11) 0.35694(4)
H27 H 0.0378 0.9579 0.3278
C29 C 0.27133(10) 0.67165(10) 0.37513(4)
C30 C 0.11838(11) 0.66068(11) 0.38597(4)
H28 H 0.0218 0.7393 0.4141
C31 C 0.10924(13) 0.53279(12) 0.35498(5)
H29 H 0.0044 0.5261 0.3608
C32 C 0.25289(14) 0.41481(13) 0.31550(5)
H30 H 0.2474 0.3253 0.2958
C33 C 0.40454(13) 0.42753(12) 0.30483(5)
H31 H 0.5020 0.3474 0.2775
C34 C 0.41408(11) 0.55772(11) 0.33420(4)
H32 H 0.5165 0.5683 0.3263
O3 O 0.73134(9) 0.78485(11) 0.44182(4)
O4 O 0.40072(9) 0.90072(9) 0.29928(3)
S2 S 0.28557(2) 0.82082(2) 0.423634(9)
C18 C 0.52202(10) 0.17499(10) 0.59787(4)
C19 C 0.41005(11) 0.21435(11) 0.54828(4)
C20 C 0.46259(13) 0.25858(14) 0.48211(5)
H17 H 0.3695 0.2868 0.4554
H18 H 0.4819 0.3553 0.4856
H19 H 0.5703 0.1621 0.4627
C21 C 0.49659(11) 0.12031(11) 0.66183(4)
C22 C 0.34625(14) 0.08639(16) 0.68106(6)
H20 H 0.2368 0.1932 0.6861
H21 H 0.3420 0.0158 0.6480
H22 H 0.3624 0.0281 0.7216
C23 C 0.89090(10) -0.02078(10) 0.59312(4)
C24 C 0.92657(11) -0.14984(11) 0.55020(4)
H23 H 0.8574 -0.1294 0.5165
C25 C 1.06532(13) -0.30937(11) 0.55749(5)
H24 H 1.0906 -0.3993 0.5290
C26 C 1.16701(12) -0.33714(11) 0.60658(5)
H25 H 1.2630 -0.4457 0.6108
C27 C 1.12935(12) -0.20727(12) 0.64952(5)
H26 H 1.1988 -0.2276 0.6831
C28 C 0.98951(11) -0.04720(11) 0.64306(4)
H27 H 0.9622 0.0421 0.6722
C29 C 0.72867(10) 0.32835(10) 0.62487(4)
C30 C 0.88162(11) 0.33932(11) 0.61403(4)
H28 H 0.9782 0.2607 0.5859
C31 C 0.89076(13) 0.46721(12) 0.64502(5)
H29 H 0.9956 0.4739 0.6392
C32 C 0.74711(14) 0.58519(13) 0.68450(5)
H30 H 0.7526 0.6747 0.7042
C33 C 0.59546(13) 0.57247(12) 0.69517(5)
H31 H 0.4980 0.6526 0.7225
C34 C 0.58592(11) 0.44228(11) 0.66580(4)
H32 H 0.4835 0.4317 0.6737
O3 O 0.26866(9) 0.21515(11) 0.55818(4)
O4 O 0.59928(9) 0.09928(9) 0.70072(3)
S2 S 0.71443(2) 0.17918(2) 0.576366(9)

#END
