./LAFSIW_from_POSCAR.cif_generated_by_CrystalShift
_symmetry_cell_setting triclinic
_symmetry_space_group_name_H-M 'P 1'
loop_
_symmetry_equiv_pos_site_id
_symmetry_equiv_pos_as_xyz
1 x,y,z
_cell_length_a 14.953900
_cell_length_b 9.088000
_cell_length_c 18.475500
_cell_angle_alpha 90.000000
_cell_angle_beta 91.392000
_cell_angle_gamma 90.000000
_cell_volume 2510.098753
loop_
_atom_site_label
_atom_site_type_symbol
_atom_site_fract_x
_atom_site_fract_y
_atom_site_fract_z
H1 H 0.407100 0.002900 0.173000
H2 H 0.187300 0.852400 0.647300
H3 H 0.125500 0.850300 0.763400
H4 H 0.207400 0.752400 0.861600
H5 H 0.351600 0.658600 0.845600
H6 H -0.009500 0.765100 0.483800
H7 H 0.414900 0.662200 0.730600
H8 H -0.141300 0.623200 0.481900
H9 H 0.407100 0.997100 0.673000
H10 H -0.155000 0.422500 0.403400
H11 H 0.538500 1.140200 0.672800
H12 H -0.038500 0.359800 0.327200
H13 H 0.655000 1.077500 0.596600
H14 H 0.092900 0.502900 0.327000
H15 H 0.641300 0.876800 0.518100
H16 H 0.509500 0.734900 0.516200
H17 H 0.085100 0.837800 0.269400
H18 H 0.358700 0.876800 0.981900
H19 H 0.148400 0.841400 0.154400
H20 H 0.345000 1.077500 0.903400
H21 H 0.292600 0.747600 0.138400
H22 H 0.312700 0.352400 0.852700
H23 H 0.374500 0.649700 0.236600
H24 H 0.374500 0.350300 0.736600
H25 H 0.312700 0.647600 0.352700
H26 H 0.812700 0.852400 0.852700
H27 H 0.292600 0.252400 0.638400
H28 H 0.874500 0.850300 0.736600
H29 H 0.148400 0.158600 0.654400
H30 H 0.085100 0.162200 0.769400
H31 H 0.092900 0.497100 0.827000
H32 H -0.038500 0.640200 0.827200
H33 H -0.155000 0.577500 0.903400
H34 H 1.009500 0.765100 0.016200
H35 H -0.141300 0.376800 0.981900
H36 H 1.141300 0.623200 0.018100
H37 H -0.009500 0.234900 0.983800
H38 H 1.155000 0.422500 0.096600
H39 H 0.461500 1.140200 0.827200
H40 H 1.038500 0.359800 0.172800
H41 H 0.687300 0.352400 0.647300
H42 H 0.907100 0.502900 0.173000
H43 H 0.625500 0.350300 0.763400
H44 H 0.707400 0.252400 0.861600
H45 H 0.914900 0.837800 0.230600
H46 H 0.851600 0.158600 0.845600
H47 H 0.851600 0.841400 0.345600
H48 H 0.914900 0.162200 0.730600
H49 H 0.707400 0.747600 0.361600
H50 H 0.907100 0.497100 0.673000
H51 H 0.625500 0.649700 0.263400
H52 H 1.038500 0.640200 0.672800
H53 H 0.687300 0.647600 0.147300
H54 H 1.155000 0.577500 0.596600
H55 H 0.792600 0.752400 0.638400
H56 H 1.141300 0.376800 0.518100
H57 H 1.009500 0.234900 0.516200
H58 H 0.592900 0.997100 0.827000
H59 H 0.187300 0.147600 0.147300
H60 H 0.125500 0.149700 0.263400
H61 H 0.207400 0.247600 0.361600
H62 H 0.490500 0.265100 0.483800
H63 H 0.351600 0.341400 0.345600
H64 H 0.358700 0.123200 0.481900
H65 H 0.414900 0.337800 0.230600
H66 H 0.345000 -0.077500 0.403400
H67 H 0.490500 0.734900 0.983800
H68 H 0.461500 -0.140200 0.327200
H69 H 0.538500 -0.140200 0.172800
H70 H 0.592900 0.002900 0.327000
H71 H 0.655000 -0.077500 0.096600
H72 H 0.641300 0.123200 0.018100
H73 H 0.585100 0.337800 0.269400
H74 H 0.509500 0.265100 0.016200
H75 H 0.648400 0.341400 0.154400
H76 H 0.585100 0.662200 0.769400
H77 H 0.792600 0.247600 0.138400
H78 H 0.648400 0.658600 0.654400
H79 H 0.874500 0.149700 0.236600
H80 H 0.812700 0.147600 0.352700
C81 C 0.779860 0.186710 0.312490
C82 C 0.816320 0.188180 0.243590
C83 C 0.681310 0.697770 0.694600
C84 C 0.767360 0.246130 0.185110
C85 C 0.377340 0.426900 0.068980
C86 C 0.447440 0.499290 0.107310
C87 C 0.328780 0.496340 0.012180
C88 C 0.448330 0.147190 0.095330
C89 C 0.516120 0.183990 0.048260
C90 C 0.681310 0.302230 0.194600
C91 C 0.593810 0.099260 0.049250
C92 C 0.643760 0.300910 0.262580
C93 C 0.601790 -0.020400 0.095900
C94 C 0.694290 0.243950 0.320880
C95 C 0.532590 -0.057390 0.141670
C96 C 0.545350 0.026860 0.358070
C97 C 0.454650 0.026860 0.141930
C98 C 0.467410 -0.057390 0.358330
C99 C 0.305710 0.243950 0.179120
C100 C 0.356240 0.300910 0.237420
C101 C 0.398210 -0.020400 0.404100
C102 C 0.318690 0.302230 0.305400
C103 C 0.406190 0.099260 0.450750
C104 C 0.232640 0.246130 0.314890
C105 C 0.483880 0.183990 0.451740
C106 C 0.183680 0.188180 0.256410
C107 C 0.551670 0.147190 0.404670
C108 C 0.220140 0.186710 0.187510
C109 C 0.671220 0.496340 0.487820
C110 C 0.643760 0.699090 0.762580
C111 C 0.694290 0.756050 0.820880
C112 C 0.552560 0.499290 0.392690
C113 C 0.877340 0.073100 0.568980
C114 C 0.947440 0.000710 0.607310
C115 C 0.828780 0.003660 0.512180
C116 C 0.948330 0.352810 0.595330
C117 C 1.016120 0.316010 0.548260
C118 C 0.622660 0.426900 0.431020
C119 C 1.093810 0.400740 0.549250
C120 C 0.767360 0.753870 0.685110
C121 C 1.101790 0.520400 0.595900
C122 C 0.816320 0.811820 0.743590
C123 C 1.032590 0.557390 0.641670
C124 C 0.720140 0.686710 0.187510
C125 C 0.954650 0.473140 0.641930
C126 C 0.683680 0.688180 0.256410
C127 C 0.805710 0.256050 0.679120
C128 C 0.856240 0.199090 0.737420
C129 C 0.732640 0.746130 0.314890
C130 C 0.818690 0.197770 0.805400
C131 C 0.818690 0.802230 0.305400
C132 C 0.732640 0.253870 0.814890
C133 C 0.856240 0.800910 0.237420
C134 C 0.683680 0.311820 0.756410
C135 C 0.805710 0.743950 0.179120
C136 C 0.720140 0.313290 0.687510
C137 C 0.954650 0.526860 0.141930
C138 C 0.545350 0.973140 0.858070
C139 C 1.032590 0.442610 0.141670
C140 C 0.467410 1.057390 0.858330
C141 C 0.122660 0.073100 0.931020
C142 C 0.052560 0.000710 0.892690
C143 C 0.171220 0.003660 0.987820
C144 C 0.051670 0.352810 0.904670
C145 C -0.016120 0.316010 0.951740
C146 C 1.101790 0.479600 0.095900
C147 C -0.093810 0.400740 0.950750
C148 C 1.093810 0.599260 0.049250
C149 C -0.101790 0.520400 0.904100
C150 C 1.016120 0.683990 0.048260
C151 C -0.032590 0.557390 0.858330
C152 C 0.948330 0.647190 0.095330
C153 C 0.045350 0.473140 0.858070
C154 C 0.828780 0.996340 0.012180
C155 C 0.194290 0.256050 0.820880
C156 C 0.143760 0.199090 0.762580
C157 C 0.947440 0.999290 0.107310
C158 C 0.181310 0.197770 0.694600
C159 C 0.877340 0.926900 0.068980
C160 C 0.267360 0.253870 0.685110
C161 C 0.779860 0.813290 0.812490
C162 C 0.316320 0.311820 0.743590
C163 C 0.279860 0.686710 0.312490
C164 C 0.279860 0.313290 0.812490
C165 C 0.316320 0.688180 0.243590
C166 C 0.267360 0.746130 0.185110
C167 C 0.398210 1.020400 0.904100
C168 C 0.181310 0.802230 0.194600
C169 C 0.377340 0.573100 0.568980
C170 C 0.447440 0.500710 0.607310
C171 C 0.328780 0.503660 0.512180
C172 C 0.448330 0.852810 0.595330
C173 C 0.516120 0.816010 0.548260
C174 C 0.143760 0.800910 0.262580
C175 C 0.593810 0.900740 0.549250
C176 C 0.194290 0.743950 0.320880
C177 C 0.601790 1.020400 0.595900
C178 C 0.045350 0.526860 0.358070
C179 C 0.532590 1.057390 0.641670
C180 C -0.032590 0.442610 0.358330
C181 C 0.454650 0.973140 0.641930
C182 C -0.101790 0.479600 0.404100
C183 C 0.305710 0.756050 0.679120
C184 C 0.356240 0.699090 0.737420
C185 C -0.093810 0.599260 0.450750
C186 C 0.318690 0.697770 0.805400
C187 C -0.016120 0.683990 0.451740
C188 C 0.232640 0.753870 0.814890
C189 C 0.051670 0.647190 0.404670
C190 C 0.183680 0.811820 0.756410
C191 C 0.171220 0.996340 0.487820
C192 C 0.220140 0.813290 0.687510
C193 C 0.052560 0.999290 0.392690
C194 C 0.406190 0.900740 0.950750
C195 C 0.122660 0.926900 0.431020
C196 C 0.483880 0.816010 0.951740
C197 C 0.622660 0.573100 0.931020
C198 C 0.552560 0.500710 0.892690
C199 C 0.671220 0.503660 0.987820
C200 C 0.551670 0.852810 0.904670
N201 N 0.505880 0.555880 0.138960
N202 N 0.287820 0.448180 0.465580
N203 N 0.505880 0.444120 0.638960
N204 N 0.494120 0.444120 0.861040
N205 N 0.212180 -0.051820 1.034420
N206 N -0.005880 -0.055880 0.861040
N207 N -0.005880 1.055880 0.361040
N208 N 0.787820 -0.051820 0.465580
N209 N 1.005880 -0.055880 0.638960
N210 N 0.212180 1.051820 0.534420
N211 N 0.287820 0.551820 -0.034420
N212 N 0.712180 0.448180 1.034420
N213 N 1.005880 1.055880 0.138960
N214 N 0.712180 0.551820 0.534420
N215 N 0.494120 0.555880 0.361040
N216 N 0.787820 1.051820 -0.034420
S217 S 0.654140 0.250010 0.411059
S218 S 0.154140 0.750010 0.411059
S219 S 0.345860 0.250010 0.088941
S220 S 0.845860 0.249990 0.588941
S221 S 0.154140 0.249990 0.911059
S222 S 0.345860 0.749990 0.588941
S223 S 0.845860 0.750010 0.088941
S224 S 0.654140 0.749990 0.911059

#END
