./LAFTET_from_POSCAR.cif_generated_by_CrystalShift
_symmetry_cell_setting triclinic
_symmetry_space_group_name_H-M 'P 1'
loop_
_symmetry_equiv_pos_site_id
_symmetry_equiv_pos_as_xyz
1 x,y,z
_cell_length_a 10.949000
_cell_length_b 11.234000
_cell_length_c 12.420000
_cell_angle_alpha 90.000000
_cell_angle_beta 90.000000
_cell_angle_gamma 90.000000
_cell_volume 1527.673240
loop_
_atom_site_label
_atom_site_type_symbol
_atom_site_fract_x
_atom_site_fract_y
_atom_site_fract_z
H1 H 0.099100 0.394400 1.014600
H2 H 0.336900 0.243300 0.886900
H3 H 0.131000 -0.005900 0.614500
H4 H 0.479800 0.395100 0.867700
H5 H 0.295900 -0.148200 0.551600
H6 H 0.596800 0.410000 0.710100
H7 H 1.125100 0.702600 0.664000
H8 H 1.045400 0.821900 0.665100
H9 H 0.523900 -0.222200 0.244800
H10 H 0.545400 -0.321900 0.334900
H11 H 0.625100 -0.202600 0.336000
H12 H 1.023900 0.722200 0.755200
H13 H 0.795900 0.648200 0.448400
H14 H 0.096800 0.090000 0.289900
H15 H 0.631000 0.505900 0.385500
H16 H -0.020200 0.104900 0.132300
H17 H 0.418000 0.123400 0.587100
H18 H -0.163100 0.256700 0.113100
H19 H 0.746600 0.157100 0.662700
H20 H -0.193800 0.393300 0.252300
H21 H 0.840000 0.878700 -0.152900
H22 H -0.082000 0.376600 0.412900
H23 H 0.704700 1.040300 -0.166000
H24 H 0.599100 1.105600 -0.014600
H25 H 0.246600 0.342900 0.337300
H26 H 0.623400 1.007800 0.150000
H27 H 0.376600 0.507800 0.350000
H28 H 0.753400 0.842900 0.162700
H29 H 0.400900 0.605600 0.514600
H30 H 1.082000 0.876600 0.087100
H31 H 0.295300 0.540300 0.666000
H32 H 1.193800 0.893300 0.247700
H33 H 0.160000 0.378700 0.652900
H34 H 0.660000 0.121300 0.347100
H35 H 1.163100 0.756700 0.386900
H36 H 0.795300 -0.040300 0.334000
H37 H 1.020200 0.604900 0.367700
H38 H 0.903200 0.590000 0.210100
H39 H 0.374900 0.297400 0.164000
H40 H 0.369000 1.005900 1.114500
H41 H 0.454600 0.178100 0.165100
H42 H 0.204100 1.148200 1.051600
H43 H 0.476100 0.277800 0.255200
H44 H 0.704100 0.351800 -0.051600
H45 H 0.869000 0.494100 -0.114500
H46 H -0.023900 1.222200 0.744800
H47 H -0.045400 1.321900 0.834900
H48 H -0.125100 1.202600 0.836000
H49 H 0.876600 -0.007800 0.650000
H50 H 0.900900 -0.105600 0.485400
H51 H 0.403200 0.910000 0.789900
H52 H 0.340000 0.621300 1.152900
H53 H 0.520200 0.895100 0.632300
H54 H 0.204700 0.459700 1.166000
H55 H 0.663100 0.743300 0.613100
H56 H 0.306200 0.106700 0.747700
H57 H 0.693800 0.606700 0.752300
H58 H 0.123400 0.492200 0.850000
H59 H 0.582000 0.623400 0.912900
H60 H 0.253400 0.657100 0.837300
C61 C 0.244500 0.615780 0.903520
C62 C 0.308670 0.651100 0.993700
C63 C 0.166950 0.518920 0.911540
C64 C 0.568780 0.677560 0.855340
C65 C 0.152590 0.460740 1.009350
C66 C 0.635360 0.668590 0.760520
C67 C 0.215790 0.499040 1.099050
C68 C 0.616980 0.749600 0.677630
C69 C 0.295520 0.594970 1.091720
C70 C 0.531690 0.839380 0.688980
C71 C 0.462620 0.849030 0.782260
C72 C 0.847410 -0.039260 0.490650
C73 C 0.482630 0.767340 0.864110
C74 C 0.833050 0.018920 0.588460
C75 C 0.808320 0.598990 0.017080
C76 C 0.814990 0.503560 -0.055290
C77 C -0.044390 1.236130 0.820580
C78 C 0.725020 0.426470 -0.020780
C79 C 0.074440 1.066690 0.860930
C80 C 0.670150 0.480890 0.069770
C81 C 0.574440 0.433310 0.139070
C82 C 0.455610 0.263870 0.179420
C83 C 0.170150 1.019110 0.930230
C84 C 0.225020 1.073530 1.020780
C85 C 0.314990 0.996440 1.055290
C86 C 0.982630 0.732660 0.135890
C87 C 0.962620 0.650970 0.217740
C88 C 0.308320 0.901010 0.982920
C89 C 1.031690 0.660620 0.311020
C90 C 0.784210 -0.000960 0.400950
C91 C 1.116980 0.750400 0.322370
C92 C 0.704480 0.094970 0.408280
C93 C 1.135360 0.831410 0.239480
C94 C 0.204480 0.405030 0.591720
C95 C 1.068780 0.822440 0.144660
C96 C 0.284210 0.500960 0.599050
C97 C 0.808670 0.848900 0.006300
C98 C 0.744500 0.884220 0.096480
C99 C 0.347410 0.539260 0.509350
C100 C 0.666950 0.981080 0.088460
C101 C 0.333050 0.481080 0.411540
C102 C 0.652590 1.039260 -0.009350
C103 C 0.255500 0.384220 0.403520
C104 C 0.715790 1.000960 -0.099050
C105 C 0.191330 0.348900 0.493700
C106 C 0.795520 0.905030 -0.091720
C107 C -0.068780 0.322440 0.355340
C108 C -0.135360 0.331410 0.260520
C109 C 0.755500 0.115780 0.596480
C110 C 0.691330 0.151100 0.506300
C111 C -0.116980 0.250400 0.177630
C112 C 0.691680 0.401010 0.517080
C113 C 0.685010 0.496440 0.444710
C114 C -0.031690 0.160620 0.188980
C115 C 0.774980 0.573530 0.479220
C116 C 0.037380 0.150970 0.282260
C117 C 0.829850 0.519110 0.569770
C118 C 0.925560 0.566690 0.639070
C119 C 1.044390 0.736130 0.679420
C120 C 0.017370 0.232660 0.364110
C121 C 0.544390 -0.236130 0.320580
C122 C 0.425560 -0.066690 0.360930
C123 C 0.517370 0.267340 0.635890
C124 C 0.537380 0.349030 0.717740
C125 C 0.329850 -0.019110 0.430230
C126 C 0.468310 0.339380 0.811020
C127 C 0.274980 -0.073530 0.520780
C128 C 0.383020 0.249600 0.822370
C129 C 0.185010 0.003560 0.555290
C130 C 0.364640 0.168590 0.739480
C131 C 0.191680 0.098990 0.482920
C132 C 0.431220 0.177560 0.644660
N133 N 0.221140 0.911380 0.906880
N134 N 0.778860 0.411380 0.593120
N135 N 0.278860 0.088620 0.406880
N136 N 0.721140 0.588620 0.093120
O137 O 0.026080 1.015730 0.786180
O138 O 0.545310 0.320010 0.111930
O139 O 0.973920 0.515730 0.713820
O140 O 0.526080 0.484270 0.213820
O141 O 0.473920 -0.015730 0.286180
O142 O 0.454690 -0.179990 0.388070
O143 O 0.045310 1.179990 0.888070
O144 O 0.954690 0.679990 0.611930
S145 S 0.405990 0.779090 0.991640
S146 S 0.905990 0.720910 0.008360
S147 S 0.094010 0.220910 0.491640
S148 S 0.594010 0.279090 0.508360

#END
