./LAFTAP_from_POSCAR.cif_generated_by_CrystalShift
_symmetry_cell_setting triclinic
_symmetry_space_group_name_H-M 'P 1'
loop_
_symmetry_equiv_pos_site_id
_symmetry_equiv_pos_as_xyz
1 x,y,z
_cell_length_a 8.683700
_cell_length_b 9.177700
_cell_length_c 12.766600
_cell_angle_alpha 100.399000
_cell_angle_beta 108.776000
_cell_angle_gamma 102.207000
_cell_volume 906.926846
loop_
_atom_site_label
_atom_site_type_symbol
_atom_site_fract_x
_atom_site_fract_y
_atom_site_fract_z
H1 H 0.361200 0.106200 0.934500
H2 H 0.553600 0.191500 1.126500
H3 H 0.575000 0.427700 1.243400
H4 H 0.408600 0.582500 1.169800
H5 H 0.223000 0.503500 0.976600
H6 H -0.006100 0.209100 0.971500
H7 H -0.286700 0.128500 0.962500
H8 H -0.513600 0.056600 0.785900
H9 H 0.963600 1.084700 0.129900
H10 H -0.463800 0.074000 0.619000
H11 H 1.016100 1.352200 0.160000
H12 H -0.184900 0.161100 0.626800
H13 H 0.969800 1.501900 0.310000
H14 H 0.566400 0.395400 0.438600
H15 H 0.872900 1.387600 0.434700
H16 H 0.576000 0.232400 0.463900
H17 H 0.565800 0.366600 0.558400
H18 H 0.287900 0.345900 0.437100
H19 H 0.702000 0.786900 0.658900
H20 H 0.712100 0.654100 0.562900
H21 H 0.298000 0.213100 0.341100
H22 H 0.434200 0.633400 0.441600
H23 H 0.424000 0.767600 0.536100
H24 H 0.433600 0.604600 0.561400
H25 H 0.127100 -0.387600 0.565300
H26 H 0.030200 -0.501900 0.690000
H27 H 1.184900 0.838900 0.373200
H28 H -0.016100 -0.352200 0.840000
H29 H 1.463800 0.926000 0.381000
H30 H 0.036400 -0.084700 0.870100
H31 H 1.513600 0.943400 0.214100
H32 H 0.638800 0.893800 0.065500
H33 H 1.286700 0.871500 0.037500
H34 H 0.446400 0.808500 -0.126500
H35 H 1.006100 0.790900 0.028500
H36 H 0.425000 0.572300 -0.243400
H37 H 0.591400 0.417500 -0.169800
H38 H 0.777000 0.496500 0.023400
C39 C 0.600330 0.513240 -0.121650
C40 C 0.711740 0.560490 -0.007610
C41 C 0.501700 0.605730 -0.165570
C42 C 0.725930 0.703640 0.060480
C43 C 0.514890 0.746440 -0.096210
C44 C 1.099220 0.818070 0.099730
C45 C 0.628410 0.797060 0.017810
C46 C 1.265460 0.866650 0.105450
C47 C 0.485110 0.253560 1.096210
C48 C 0.498300 0.394270 1.165570
C49 C 0.399670 0.486760 1.121650
C50 C 0.803640 0.934990 0.378870
C51 C 0.196360 0.065010 0.621130
C52 C 0.153760 0.079080 0.720520
C53 C 0.111560 -0.074580 0.733480
C54 C 0.054080 -0.144640 0.808450
C55 C 1.400380 0.908050 0.210360
C56 C 0.023890 -0.303160 0.790370
C57 C 1.370660 0.898070 0.309650
C58 C 0.051220 -0.393460 0.699940
C59 C 1.205810 0.847590 0.305690
C60 C 0.108040 -0.326550 0.625750
C61 C 1.072360 0.810180 0.200340
C62 C 0.137130 -0.166410 0.641350
C63 C 0.249520 0.193760 0.573150
C64 C 0.336620 0.258900 0.424900
C65 C 0.472040 0.681450 0.524080
C66 C 0.663380 0.741100 0.575100
C67 C 0.527960 0.318550 0.475920
C68 C 0.750480 0.806240 0.426850
C69 C 0.862870 1.166410 0.358650
C70 C 0.891960 1.326550 0.374250
C71 C -0.072360 0.189820 0.799660
C72 C -0.205810 0.152410 0.694310
C73 C 0.948780 1.393460 0.300060
C74 C -0.370660 0.101930 0.690350
C75 C 0.976110 1.303160 0.209630
C76 C -0.400380 0.091950 0.789640
C77 C 0.945920 1.144640 0.191550
C78 C -0.265460 0.133350 0.894550
C79 C 0.888440 1.074580 0.266520
C80 C -0.099220 0.181930 0.900270
C81 C 0.846240 0.920920 0.279480
C82 C 0.274070 0.296360 0.939520
C83 C 0.288260 0.439510 1.007610
C84 C 0.371590 0.202940 0.982190
N85 N 0.811400 1.080180 0.425650
N86 N 0.188600 -0.080180 0.574350
O87 O 0.723400 0.857150 0.522310
O88 O 0.269000 0.328500 0.616160
O89 O 0.731000 0.671500 0.383840
O90 O 0.276600 0.142850 0.477690
S91 S 0.134020 0.245890 0.792560
S92 S 0.865980 0.754110 0.207440

#END
