
#######################################################################
#
#                 Cambridge Crystallographic Data Centre
#                                CCDC 
#
#######################################################################
#
# If this CIF has been generated from an entry in the Cambridge 
# Structural Database, then it will include bibliographic, chemical, 
# crystal, experimental, refinement or atomic coordinate data resulting 
# from the CCDC's data processing and validation procedures.
#
#######################################################################

data_LAFTET
_symmetry_cell_setting           orthorhombic
_symmetry_space_group_name_H-M   'P 21 21 21'
_symmetry_Int_Tables_number      19
_space_group_name_Hall           'P 2ac 2ab'
loop_
_symmetry_equiv_pos_site_id
_symmetry_equiv_pos_as_xyz
1 x,y,z
2 1/2-x,-y,1/2+z
3 -x,1/2+y,1/2-z
4 1/2+x,1/2-y,-z
_cell_length_a                   10.949(2)
_cell_length_b                   11.234(2)
_cell_length_c                   12.420(2)
_cell_angle_alpha                90
_cell_angle_beta                 90
_cell_angle_gamma                90
_cell_volume                     1527.67
loop_
_atom_site_label
_atom_site_type_symbol
_atom_site_fract_x
_atom_site_fract_y
_atom_site_fract_z
C1 C 0.19168(13) 0.09899(13) 0.48292(12)
C2 C 0.18501(14) 0.00356(14) 0.55529(12)
H1 H 0.1310 -0.0059 0.6145
C3 C 0.27498(14) -0.07353(13) 0.52078(12)
H2 H 0.2959 -0.1482 0.5516
C4 C 0.32985(14) -0.01911(13) 0.43023(12)
C5 C 0.42556(13) -0.06669(13) 0.36093(12)
C6 C 0.54439(17) -0.23613(15) 0.32058(15)
H3 H 0.5239 -0.2222 0.2448
H4 H 0.5454 -0.3219 0.3349
H5 H 0.6251 -0.2026 0.3360
C7 C 0.01737(13) 0.23266(14) 0.36411(12)
C8 C 0.03738(16) 0.15097(16) 0.28226(14)
H6 H 0.0968 0.0900 0.2899
C9 C -0.03169(17) 0.16062(18) 0.18898(14)
H7 H -0.0202 0.1049 0.1323
C10 C -0.11698(15) 0.25040(16) 0.17763(13)
H8 H -0.1631 0.2567 0.1131
C11 C -0.13536(15) 0.33141(15) 0.26052(14)
H9 H -0.1938 0.3933 0.2523
C12 C -0.06878(14) 0.32244(14) 0.35534(13)
H10 H -0.0820 0.3766 0.4129
C13 C 0.19133(13) 0.34890(12) 0.49370(13)
C14 C 0.25550(15) 0.38422(17) 0.40352(14)
H11 H 0.2466 0.3429 0.3373
C15 C 0.33305(16) 0.48108(17) 0.41154(15)
H12 H 0.3766 0.5078 0.3500
C16 C 0.34741(15) 0.53926(15) 0.50935(16)
H13 H 0.4009 0.6056 0.5146
C17 C 0.28421(17) 0.50096(17) 0.59905(15)
H14 H 0.2953 0.5403 0.6660
C18 C 0.20448(16) 0.40503(15) 0.59172(14)
H15 H 0.1600 0.3787 0.6529
N1 N 0.27886(11) 0.08862(11) 0.40688(10)
O1 O 0.45469(11) -0.17999(9) 0.38807(9)
O2 O 0.47392(10) -0.01573(9) 0.28618(8)
S1 S 0.09401(3) 0.22091(3) 0.49164(3)
C1 C 0.30832(13) 0.90101(13) 0.98292(12)
C2 C 0.31499(14) 0.99644(14) 1.05529(12)
H1 H 0.3690 1.0059 1.1145
C3 C 0.22502(14) 1.07353(13) 1.02078(12)
H2 H 0.2041 1.1482 1.0516
C4 C 0.17015(14) 1.01911(13) 0.93023(12)
C5 C 0.07444(13) 1.06669(13) 0.86093(12)
C6 C -0.04439(17) 1.23613(15) 0.82058(15)
H3 H -0.0239 1.2222 0.7448
H4 H -0.0454 1.3219 0.8349
H5 H -0.1251 1.2026 0.8360
C7 C 0.48263(13) 0.76734(14) 0.86411(12)
C8 C 0.46262(16) 0.84903(16) 0.78226(14)
H6 H 0.4032 0.9100 0.7899
C9 C 0.53169(17) 0.83938(18) 0.68898(14)
H7 H 0.5202 0.8951 0.6323
C10 C 0.61698(15) 0.74960(16) 0.67763(13)
H8 H 0.6631 0.7433 0.6131
C11 C 0.63536(15) 0.66859(15) 0.76052(14)
H9 H 0.6938 0.6067 0.7523
C12 C 0.56878(14) 0.67756(14) 0.85534(13)
H10 H 0.5820 0.6234 0.9129
C13 C 0.30867(13) 0.65110(12) 0.99370(13)
C14 C 0.24450(15) 0.61578(17) 0.90352(14)
H11 H 0.2534 0.6571 0.8373
C15 C 0.16695(16) 0.51892(17) 0.91154(15)
H12 H 0.1234 0.4922 0.8500
C16 C 0.15259(15) 0.46074(15) 1.00935(16)
H13 H 0.0991 0.3944 1.0146
C17 C 0.21579(17) 0.49904(17) 1.09905(15)
H14 H 0.2047 0.4597 1.1660
C18 C 0.29552(16) 0.59497(15) 1.09172(14)
H15 H 0.3400 0.6213 1.1529
N1 N 0.22114(11) 0.91138(11) 0.90688(10)
O1 O 0.04531(11) 1.17999(9) 0.88807(9)
O2 O 0.02608(10) 1.01573(9) 0.78618(8)
S1 S 0.40599(3) 0.77909(3) 0.99164(3)
C1 C 0.80832(13) 0.59899(13) 0.01708(12)
C2 C 0.81499(14) 0.50356(14) -0.05529(12)
H1 H 0.8690 0.4941 -0.1145
C3 C 0.72502(14) 0.42647(13) -0.02078(12)
H2 H 0.7041 0.3518 -0.0516
C4 C 0.67015(14) 0.48089(13) 0.06977(12)
C5 C 0.57444(13) 0.43331(13) 0.13907(12)
C6 C 0.45561(17) 0.26387(15) 0.17942(15)
H3 H 0.4761 0.2778 0.2552
H4 H 0.4546 0.1781 0.1651
H5 H 0.3749 0.2974 0.1640
C7 C 0.98263(13) 0.73266(14) 0.13589(12)
C8 C 0.96262(16) 0.65097(16) 0.21774(14)
H6 H 0.9032 0.5900 0.2101
C9 C 1.03169(17) 0.66062(18) 0.31102(14)
H7 H 1.0202 0.6049 0.3677
C10 C 1.11698(15) 0.75040(16) 0.32237(13)
H8 H 1.1631 0.7567 0.3869
C11 C 1.13536(15) 0.83141(15) 0.23948(14)
H9 H 1.1938 0.8933 0.2477
C12 C 1.06878(14) 0.82244(14) 0.14466(13)
H10 H 1.0820 0.8766 0.0871
C13 C 0.80867(13) 0.84890(12) 0.00630(13)
C14 C 0.74450(15) 0.88422(17) 0.09648(14)
H11 H 0.7534 0.8429 0.1627
C15 C 0.66695(16) 0.98108(17) 0.08846(15)
H12 H 0.6234 1.0078 0.1500
C16 C 0.65259(15) 1.03926(15) -0.00935(16)
H13 H 0.5991 1.1056 -0.0146
C17 C 0.71579(17) 1.00096(17) -0.09905(15)
H14 H 0.7047 1.0403 -0.1660
C18 C 0.79552(16) 0.90503(15) -0.09172(14)
H15 H 0.8400 0.8787 -0.1529
N1 N 0.72114(11) 0.58862(11) 0.09312(10)
O1 O 0.54531(11) 0.32001(9) 0.11193(9)
O2 O 0.52608(10) 0.48427(9) 0.21382(8)
S1 S 0.90599(3) 0.72091(3) 0.00836(3)
C1 C 0.69168(13) 0.40101(13) 0.51708(12)
C2 C 0.68501(14) 0.49644(14) 0.44471(12)
H1 H 0.6310 0.5059 0.3855
C3 C 0.77498(14) 0.57353(13) 0.47922(12)
H2 H 0.7959 0.6482 0.4484
C4 C 0.82985(14) 0.51911(13) 0.56977(12)
C5 C 0.92556(13) 0.56669(13) 0.63907(12)
C6 C 1.04439(17) 0.73613(15) 0.67942(15)
H3 H 1.0239 0.7222 0.7552
H4 H 1.0454 0.8219 0.6651
H5 H 1.1251 0.7026 0.6640
C7 C 0.51737(13) 0.26734(14) 0.63589(12)
C8 C 0.53738(16) 0.34903(16) 0.71774(14)
H6 H 0.5968 0.4100 0.7101
C9 C 0.46831(17) 0.33938(18) 0.81102(14)
H7 H 0.4798 0.3951 0.8677
C10 C 0.38302(15) 0.24960(16) 0.82237(13)
H8 H 0.3369 0.2433 0.8869
C11 C 0.36464(15) 0.16859(15) 0.73948(14)
H9 H 0.3062 0.1067 0.7477
C12 C 0.43122(14) 0.17756(14) 0.64466(13)
H10 H 0.4180 0.1234 0.5871
C13 C 0.69133(13) 0.15110(12) 0.50630(13)
C14 C 0.75550(15) 0.11578(17) 0.59648(14)
H11 H 0.7466 0.1571 0.6627
C15 C 0.83305(16) 0.01892(17) 0.58846(15)
H12 H 0.8766 -0.0078 0.6500
C16 C 0.84741(15) -0.03926(15) 0.49065(16)
H13 H 0.9009 -0.1056 0.4854
C17 C 0.78421(17) -0.00096(17) 0.40095(15)
H14 H 0.7953 -0.0403 0.3340
C18 C 0.70448(16) 0.09497(15) 0.40828(14)
H15 H 0.6600 0.1213 0.3471
N1 N 0.77886(11) 0.41138(11) 0.59312(10)
O1 O 0.95469(11) 0.67999(9) 0.61193(9)
O2 O 0.97392(10) 0.51573(9) 0.71382(8)
S1 S 0.59401(3) 0.27909(3) 0.50836(3)

#END
