
#######################################################################
#
#                 Cambridge Crystallographic Data Centre
#                                CCDC 
#
#######################################################################
#
# If this CIF has been generated from an entry in the Cambridge 
# Structural Database, then it will include bibliographic, chemical, 
# crystal, experimental, refinement or atomic coordinate data resulting 
# from the CCDC's data processing and validation procedures.
#
#######################################################################

data_LAFTOE
_symmetry_cell_setting           monoclinic
_symmetry_space_group_name_H-M   'P 21/c'
_symmetry_Int_Tables_number      14
_space_group_name_Hall           '-P 2ybc'
loop_
_symmetry_equiv_pos_site_id
_symmetry_equiv_pos_as_xyz
1 x,y,z
2 -x,1/2+y,1/2-z
3 -x,-y,-z
4 x,1/2-y,1/2+z
_cell_length_a                   11.1460(14)
_cell_length_b                   6.0896(6)
_cell_length_c                   22.939(3)
_cell_angle_alpha                90
_cell_angle_beta                 101.950(4)
_cell_angle_gamma                90
_cell_volume                     1523.24
loop_
_atom_site_label
_atom_site_type_symbol
_atom_site_fract_x
_atom_site_fract_y
_atom_site_fract_z
O1 O 0.37419(11) 1.1307(2) 0.91428(6)
O2 O 0.57808(10) 0.53748(17) 0.83080(5)
O3 O 0.56078(11) 1.2621(2) 0.96555(6)
C1 C 0.43341(17) 1.3050(3) 0.95062(9)
H1 H 0.4185 1.4431 0.9293
H2 H 0.4009 1.3162 0.9866
C2 C 0.46727(15) 1.0001(3) 0.90291(8)
C3 C 0.45485(15) 0.8179(3) 0.86739(8)
H3 H 0.3795 0.7656 0.8468
C4 C 0.56594(15) 0.7186(3) 0.86518(7)
C5 C 0.70321(15) 0.5010(3) 0.83783(7)
C6 C 0.73629(15) 0.3266(3) 0.79992(7)
C7 C 0.66260(16) 0.1427(3) 0.78483(7)
H4 H 0.5901 0.1296 0.7986
C8 C 0.69585(18) -0.0203(3) 0.74962(8)
H5 H 0.6468 -0.1443 0.7406
C9 C 0.8013(2) -0.0007(3) 0.72769(9)
H6 H 0.8240 -0.1115 0.7043
C10 C 0.76852(15) 0.6482(3) 0.87638(7)
C11 C 0.67993(14) 0.7920(3) 0.89457(7)
C12 C 0.68863(15) 0.9795(3) 0.93103(7)
H7 H 0.7634 1.0328 0.9520
C13 C 0.57966(16) 1.0777(3) 0.93344(7)
C14 C 0.90287(15) 0.6672(3) 0.89532(7)
C15 C 0.96020(17) 0.8635(3) 0.88817(9)
H8 H 0.9133 0.9827 0.8714
C16 C 1.08547(19) 0.8861(4) 0.90544(10)
H9 H 1.1223 1.0194 0.8999
C17 C 1.15611(18) 0.7133(4) 0.93071(9)
H10 H 1.2406 0.7289 0.9427
C18 C 1.10101(19) 0.5172(4) 0.93819(10)
H11 H 1.1485 0.3991 0.9552
C19 C 0.97523(18) 0.4934(3) 0.92067(9)
H12 H 0.9390 0.3593 0.9260
C20 C 0.84131(17) 0.3448(3) 0.77661(8)
H13 H 0.8912 0.4678 0.7855
C21 C 0.87248(19) 0.1833(3) 0.74064(9)
H14 H 0.9425 0.1991 0.7249
O1 O 0.62581(11) 0.6307(2) 0.58572(6)
O2 O 0.42192(10) 0.03748(17) 0.66920(5)
O3 O 0.43922(11) 0.7621(2) 0.53445(6)
C1 C 0.56659(17) 0.8050(3) 0.54938(9)
H1 H 0.5815 0.9431 0.5707
H2 H 0.5991 0.8162 0.5134
C2 C 0.53273(15) 0.5001(3) 0.59709(8)
C3 C 0.54515(15) 0.3179(3) 0.63261(8)
H3 H 0.6205 0.2656 0.6532
C4 C 0.43406(15) 0.2186(3) 0.63482(7)
C5 C 0.29679(15) 0.0010(3) 0.66217(7)
C6 C 0.26371(15) -0.1734(3) 0.70008(7)
C7 C 0.33740(16) -0.3573(3) 0.71517(7)
H4 H 0.4099 -0.3704 0.7014
C8 C 0.30415(18) -0.5203(3) 0.75038(8)
H5 H 0.3532 -0.6443 0.7594
C9 C 0.1987(2) -0.5007(3) 0.77231(9)
H6 H 0.1760 -0.6115 0.7957
C10 C 0.23148(15) 0.1482(3) 0.62362(7)
C11 C 0.32007(14) 0.2920(3) 0.60543(7)
C12 C 0.31137(15) 0.4795(3) 0.56897(7)
H7 H 0.2366 0.5328 0.5480
C13 C 0.42034(16) 0.5777(3) 0.56656(7)
C14 C 0.09713(15) 0.1672(3) 0.60468(7)
C15 C 0.03980(17) 0.3635(3) 0.61183(9)
H8 H 0.0867 0.4827 0.6286
C16 C -0.08547(19) 0.3861(4) 0.59456(10)
H9 H -0.1223 0.5194 0.6001
C17 C -0.15611(18) 0.2133(4) 0.56929(9)
H10 H -0.2406 0.2289 0.5573
C18 C -0.10101(19) 0.0172(4) 0.56181(10)
H11 H -0.1485 -0.1009 0.5448
C19 C 0.02477(18) -0.0066(3) 0.57933(9)
H12 H 0.0610 -0.1407 0.5740
C20 C 0.15869(17) -0.1552(3) 0.72339(8)
H13 H 0.1088 -0.0322 0.7145
C21 C 0.12752(19) -0.3167(3) 0.75936(9)
H14 H 0.0575 -0.3009 0.7751
O1 O 0.62581(11) -0.1307(2) 0.08572(6)
O2 O 0.42192(10) 0.46252(17) 0.16920(5)
O3 O 0.43922(11) -0.2621(2) 0.03445(6)
C1 C 0.56659(17) -0.3050(3) 0.04938(9)
H1 H 0.5815 -0.4431 0.0707
H2 H 0.5991 -0.3162 0.0134
C2 C 0.53273(15) -0.0001(3) 0.09709(8)
C3 C 0.54515(15) 0.1821(3) 0.13261(8)
H3 H 0.6205 0.2344 0.1532
C4 C 0.43406(15) 0.2814(3) 0.13482(7)
C5 C 0.29679(15) 0.4990(3) 0.16217(7)
C6 C 0.26371(15) 0.6734(3) 0.20008(7)
C7 C 0.33740(16) 0.8573(3) 0.21517(7)
H4 H 0.4099 0.8704 0.2014
C8 C 0.30415(18) 1.0203(3) 0.25038(8)
H5 H 0.3532 1.1443 0.2594
C9 C 0.1987(2) 1.0007(3) 0.27231(9)
H6 H 0.1760 1.1115 0.2957
C10 C 0.23148(15) 0.3518(3) 0.12362(7)
C11 C 0.32007(14) 0.2080(3) 0.10543(7)
C12 C 0.31137(15) 0.0205(3) 0.06897(7)
H7 H 0.2366 -0.0328 0.0480
C13 C 0.42034(16) -0.0777(3) 0.06656(7)
C14 C 0.09713(15) 0.3328(3) 0.10468(7)
C15 C 0.03980(17) 0.1365(3) 0.11183(9)
H8 H 0.0867 0.0173 0.1286
C16 C -0.08547(19) 0.1139(4) 0.09456(10)
H9 H -0.1223 -0.0194 0.1001
C17 C -0.15611(18) 0.2867(4) 0.06929(9)
H10 H -0.2406 0.2711 0.0573
C18 C -0.10101(19) 0.4828(4) 0.06181(10)
H11 H -0.1485 0.6009 0.0448
C19 C 0.02477(18) 0.5066(3) 0.07933(9)
H12 H 0.0610 0.6407 0.0740
C20 C 0.15869(17) 0.6552(3) 0.22339(8)
H13 H 0.1088 0.5322 0.2145
C21 C 0.12752(19) 0.8167(3) 0.25936(9)
H14 H 0.0575 0.8009 0.2751
O1 O 0.37419(11) 0.3693(2) 0.41428(6)
O2 O 0.57808(10) 0.96252(17) 0.33080(5)
O3 O 0.56078(11) 0.2379(2) 0.46555(6)
C1 C 0.43341(17) 0.1950(3) 0.45062(9)
H1 H 0.4185 0.0569 0.4293
H2 H 0.4009 0.1838 0.4866
C2 C 0.46727(15) 0.4999(3) 0.40291(8)
C3 C 0.45485(15) 0.6821(3) 0.36739(8)
H3 H 0.3795 0.7344 0.3468
C4 C 0.56594(15) 0.7814(3) 0.36518(7)
C5 C 0.70321(15) 0.9990(3) 0.33783(7)
C6 C 0.73629(15) 1.1734(3) 0.29992(7)
C7 C 0.66260(16) 1.3573(3) 0.28483(7)
H4 H 0.5901 1.3704 0.2986
C8 C 0.69585(18) 1.5203(3) 0.24962(8)
H5 H 0.6468 1.6443 0.2406
C9 C 0.8013(2) 1.5007(3) 0.22769(9)
H6 H 0.8240 1.6115 0.2043
C10 C 0.76852(15) 0.8518(3) 0.37638(7)
C11 C 0.67993(14) 0.7080(3) 0.39457(7)
C12 C 0.68863(15) 0.5205(3) 0.43103(7)
H7 H 0.7634 0.4672 0.4520
C13 C 0.57966(16) 0.4223(3) 0.43344(7)
C14 C 0.90287(15) 0.8328(3) 0.39532(7)
C15 C 0.96020(17) 0.6365(3) 0.38817(9)
H8 H 0.9133 0.5173 0.3714
C16 C 1.08547(19) 0.6139(4) 0.40544(10)
H9 H 1.1223 0.4806 0.3999
C17 C 1.15611(18) 0.7867(4) 0.43071(9)
H10 H 1.2406 0.7711 0.4427
C18 C 1.10101(19) 0.9828(4) 0.43819(10)
H11 H 1.1485 1.1009 0.4552
C19 C 0.97523(18) 1.0066(3) 0.42067(9)
H12 H 0.9390 1.1407 0.4260
C20 C 0.84131(17) 1.1552(3) 0.27661(8)
H13 H 0.8912 1.0322 0.2855
C21 C 0.87248(19) 1.3167(3) 0.24064(9)
H14 H 0.9425 1.3009 0.2249

#END
