./LAFWAR_from_POSCAR.cif_generated_by_CrystalShift
_symmetry_cell_setting triclinic
_symmetry_space_group_name_H-M 'P 1'
loop_
_symmetry_equiv_pos_site_id
_symmetry_equiv_pos_as_xyz
1 x,y,z
_cell_length_a 7.634000
_cell_length_b 8.931000
_cell_length_c 14.274000
_cell_angle_alpha 90.000000
_cell_angle_beta 91.820000
_cell_angle_gamma 90.000000
_cell_volume 972.699731
loop_
_atom_site_label
_atom_site_type_symbol
_atom_site_fract_x
_atom_site_fract_y
_atom_site_fract_z
H1 H 0.066000 0.884500 0.810700
H2 H -0.116100 0.874000 0.752300
H3 H 0.134500 1.351500 0.464700
H4 H 0.317400 1.360200 0.522400
H5 H 0.308700 1.399900 0.413000
H6 H 0.523800 1.004700 0.210700
H7 H 0.588900 0.857500 0.265400
H8 H 0.400600 0.859800 0.212700
H9 H 0.104900 0.777500 0.670900
H10 H 0.136600 1.219700 0.596900
H11 H 0.298000 0.643000 0.469000
H12 H 0.066000 0.615500 0.310700
H13 H -0.094500 0.510000 0.337400
H14 H -0.116100 0.626000 0.252300
H15 H 0.134500 0.148500 -0.035300
H16 H 0.702000 0.143000 1.031000
H17 H 0.863400 0.719700 0.903100
H18 H 0.895100 0.277500 0.829100
H19 H 0.599400 0.359800 1.287300
H20 H 0.411100 0.357500 1.234600
H21 H 0.476200 0.504700 1.289300
H22 H 0.691300 0.899900 1.087000
H23 H 0.682600 0.860200 0.977600
H24 H 0.865500 0.851500 1.035300
H25 H 1.116100 0.374000 0.747700
H26 H 1.094500 0.490000 0.662600
H27 H 0.934000 0.384500 0.689300
H28 H 0.317400 0.139800 0.022400
H29 H 0.308700 0.100100 -0.087000
H30 H 0.523800 0.495300 -0.289300
H31 H 0.588900 0.642500 -0.234600
H32 H 0.400600 0.640200 -0.287300
H33 H 0.104900 0.722500 0.170900
H34 H 0.136600 0.280300 0.096900
H35 H 0.298000 0.857000 -0.031000
H36 H 0.934000 0.115500 0.189300
H37 H 1.094500 0.010000 0.162600
H38 H 1.116100 0.126000 0.247700
H39 H 0.865500 -0.351500 0.535300
H40 H 0.682600 -0.360200 0.477600
H41 H 0.691300 -0.399900 0.587000
H42 H 0.476200 -0.004700 0.789300
H43 H 0.702000 0.357000 0.531000
H44 H 0.863400 -0.219700 0.403100
H45 H 0.895100 0.222500 0.329100
H46 H 0.599400 0.140200 0.787300
H47 H 0.411100 0.142500 0.734600
H48 H -0.094500 0.990000 0.837400
C49 C 0.738200 -0.335300 0.538300
C50 C 0.512900 0.080500 0.751400
C51 C 0.640100 0.129000 0.605300
C52 C 0.773800 0.184100 0.455000
C53 C 0.858600 0.144600 0.373000
C54 C 0.891700 -0.002500 0.354700
C55 C 0.721000 0.422700 1.019400
C56 C 0.756500 0.576200 0.997800
C57 C 0.839900 0.614800 0.917100
C58 C 0.891700 0.502500 0.854700
C59 C 0.858600 0.355400 0.873000
C60 C 0.279000 0.577300 -0.019400
C61 C 0.243500 0.423800 0.002200
C62 C 0.160100 0.385200 0.082900
C63 C 0.108300 0.497500 0.145300
C64 C 0.141400 0.644600 0.127000
C65 C 0.226200 0.684100 0.045000
C66 C 0.359900 0.629000 -0.105300
C67 C 0.487100 0.580500 -0.251400
C68 C 0.261800 0.164700 -0.038300
C69 C -0.034300 0.558400 0.285800
C70 C 0.839900 -0.114800 0.417100
C71 C 0.756500 -0.076200 0.497800
C72 C 0.721000 0.077300 0.519400
C73 C 0.773800 0.315900 0.955000
C74 C -0.034300 0.941600 0.785800
C75 C 0.261800 1.335300 0.461700
C76 C 0.487100 0.919500 0.248600
C77 C 0.359900 0.871000 0.394700
C78 C 1.034300 0.441600 0.714200
C79 C 0.738200 0.835300 1.038300
C80 C 0.512900 0.419500 1.251400
C81 C 0.640100 0.371000 1.105300
C82 C 0.226200 0.815900 0.545000
C83 C 0.141400 0.855400 0.627000
C84 C 0.108300 1.002500 0.645300
C85 C 0.160100 1.114800 0.582900
C86 C 0.243500 1.076200 0.502200
C87 C 0.279000 0.922700 0.480600
C88 C 1.034300 0.058400 0.214200
O89 O 0.025300 1.054400 0.721900
O90 O 0.294900 1.181000 0.439400
O91 O 0.407900 0.974500 0.334200
O92 O 0.384500 0.735600 0.378600
O93 O 0.615500 0.264400 0.621400
O94 O 0.592100 0.025500 0.665800
O95 O 0.705100 -0.181000 0.560600
O96 O 0.974700 -0.054400 0.278100
O97 O 0.749400 0.332100 0.468300
O98 O 0.250600 0.832100 0.031700
O99 O 0.025300 0.445600 0.221900
O100 O 0.294900 0.319000 -0.060600
O101 O 0.407900 0.525500 -0.165800
O102 O 0.384500 0.764400 -0.121400
O103 O 0.749400 0.167900 0.968300
O104 O 0.974700 0.554400 0.778100
O105 O 0.705100 0.681000 1.060600
O106 O 0.592100 0.474500 1.165800
O107 O 0.250600 0.667900 0.531700
O108 O 0.615500 0.235600 1.121400

#END
