
#######################################################################
#
#                 Cambridge Crystallographic Data Centre
#                                CCDC 
#
#######################################################################
#
# If this CIF has been generated from an entry in the Cambridge 
# Structural Database, then it will include bibliographic, chemical, 
# crystal, experimental, refinement or atomic coordinate data resulting 
# from the CCDC's data processing and validation procedures.
#
#######################################################################

data_LAFWIZ01
_symmetry_cell_setting           monoclinic
_symmetry_space_group_name_H-M   'P 21/c'
_symmetry_Int_Tables_number      14
_space_group_name_Hall           '-P 2ybc'
loop_
_symmetry_equiv_pos_site_id
_symmetry_equiv_pos_as_xyz
1 x,y,z
2 -x,1/2+y,1/2-z
3 -x,-y,-z
4 x,1/2-y,1/2+z
_cell_length_a                   6.077(9)
_cell_length_b                   17.72(3)
_cell_length_c                   17.275(19)
_cell_angle_alpha                90
_cell_angle_beta                 106.27(5)
_cell_angle_gamma                90
_cell_volume                     1785.75
loop_
_atom_site_label
_atom_site_type_symbol
_atom_site_fract_x
_atom_site_fract_y
_atom_site_fract_z
S1 S 1.17011(19) 0.61719(6) 0.22151(6)
N1 N 0.9425(6) 0.57038(18) 0.32243(17)
H1 H 0.8337 0.5427 0.3296
N2 N 0.8573(5) 0.51424(17) 0.20161(16)
H2 H 0.8593 0.5114 0.1521
N3 N 0.7215(5) 0.46794(17) 0.22904(15)
N4 N 0.7589(6) 0.4294(2) 0.07030(18)
C1 C 0.8928(8) 0.6418(3) 0.4343(2)
H3 H 0.7628 0.6679 0.3989
H4 H 0.8365 0.5970 0.4548
C2 C 1.0102(11) 0.6924(3) 0.5032(3)
H5 H 1.0463 0.7402 0.4822
H6 H 0.9071 0.7024 0.5359
C3 C 1.2263(9) 0.6574(4) 0.5548(3)
H7 H 1.3026 0.6927 0.5967
H8 H 1.1888 0.6125 0.5806
C4 C 1.3819(10) 0.6371(5) 0.5061(3)
H9 H 1.5172 0.6126 0.5401
H10 H 1.4306 0.6826 0.4843
C5 C 1.2650(8) 0.5850(3) 0.4377(3)
H11 H 1.3690 0.5736 0.4058
H12 H 1.2263 0.5380 0.4596
C6 C 1.0596(7) 0.6192(2) 0.3871(2)
H13 H 1.1040 0.6650 0.3634
C7 C 0.9865(6) 0.56552(19) 0.25202(19)
C8 C 0.6034(6) 0.4176(2) 0.18321(19)
C9 C 0.5900(6) 0.4044(2) 0.0976(2)
C10 C 0.3968(8) 0.3716(2) 0.0485(2)
H14 H 0.2789 0.3555 0.0692
C11 C 0.3818(8) 0.3631(3) -0.0315(2)
H15 H 0.2532 0.3407 -0.0662
C12 C 0.5524(9) 0.3870(3) -0.0589(2)
H16 H 0.5436 0.3822 -0.1133
C13 C 0.7418(8) 0.4190(3) -0.0066(2)
H17 H 0.8629 0.4338 -0.0262
C14 C 0.4626(6) 0.37157(19) 0.22118(19)
C15 C 0.4648(7) 0.2941(2) 0.2186(2)
H18 H 0.5580 0.2697 0.1920
C16 C 0.3332(8) 0.2529(2) 0.2542(2)
H19 H 0.3379 0.2005 0.2526
C17 C 0.1930(8) 0.2881(3) 0.2926(2)
H20 H 0.0998 0.2597 0.3160
C18 C 0.1905(7) 0.3644(3) 0.2967(2)
H21 H 0.0968 0.3885 0.3233
C19 C 0.3236(7) 0.4054(2) 0.2620(2)
H22 H 0.3219 0.4577 0.2657
S1 S -0.17011(19) 1.11719(6) 0.27849(6)
N1 N 0.0575(6) 1.07038(18) 0.17757(17)
H1 H 0.1663 1.0427 0.1704
N2 N 0.1427(5) 1.01424(17) 0.29839(16)
H2 H 0.1407 1.0114 0.3479
N3 N 0.2785(5) 0.96794(17) 0.27096(15)
N4 N 0.2411(6) 0.9294(2) 0.42970(18)
C1 C 0.1072(8) 1.1418(3) 0.0657(2)
H3 H 0.2372 1.1679 0.1011
H4 H 0.1635 1.0970 0.0452
C2 C -0.0102(11) 1.1924(3) -0.0032(3)
H5 H -0.0463 1.2402 0.0178
H6 H 0.0929 1.2024 -0.0359
C3 C -0.2263(9) 1.1574(4) -0.0548(3)
H7 H -0.3026 1.1927 -0.0967
H8 H -0.1888 1.1125 -0.0806
C4 C -0.3819(10) 1.1371(5) -0.0061(3)
H9 H -0.5172 1.1126 -0.0401
H10 H -0.4306 1.1826 0.0157
C5 C -0.2650(8) 1.0850(3) 0.0623(3)
H11 H -0.3690 1.0736 0.0942
H12 H -0.2263 1.0380 0.0404
C6 C -0.0596(7) 1.1192(2) 0.1129(2)
H13 H -0.1040 1.1650 0.1366
C7 C 0.0135(6) 1.06552(19) 0.24798(19)
C8 C 0.3966(6) 0.9176(2) 0.31679(19)
C9 C 0.4100(6) 0.9044(2) 0.4024(2)
C10 C 0.6032(8) 0.8716(2) 0.4515(2)
H14 H 0.7211 0.8555 0.4308
C11 C 0.6182(8) 0.8631(3) 0.5315(2)
H15 H 0.7468 0.8407 0.5662
C12 C 0.4476(9) 0.8870(3) 0.5589(2)
H16 H 0.4564 0.8822 0.6133
C13 C 0.2582(8) 0.9190(3) 0.5066(2)
H17 H 0.1371 0.9338 0.5262
C14 C 0.5374(6) 0.87157(19) 0.27882(19)
C15 C 0.5352(7) 0.7941(2) 0.2814(2)
H18 H 0.4420 0.7697 0.3080
C16 C 0.6668(8) 0.7529(2) 0.2458(2)
H19 H 0.6621 0.7005 0.2474
C17 C 0.8070(8) 0.7881(3) 0.2074(2)
H20 H 0.9002 0.7597 0.1840
C18 C 0.8095(7) 0.8644(3) 0.2033(2)
H21 H 0.9032 0.8885 0.1767
C19 C 0.6764(7) 0.9054(2) 0.2380(2)
H22 H 0.6781 0.9577 0.2343
S1 S -0.17011(19) 0.38281(6) 0.77849(6)
N1 N 0.0575(6) 0.42962(18) 0.67757(17)
H1 H 0.1663 0.4573 0.6704
N2 N 0.1427(5) 0.48576(17) 0.79839(16)
H2 H 0.1407 0.4886 0.8479
N3 N 0.2785(5) 0.53206(17) 0.77096(15)
N4 N 0.2411(6) 0.5706(2) 0.92970(18)
C1 C 0.1072(8) 0.3582(3) 0.5657(2)
H3 H 0.2372 0.3321 0.6011
H4 H 0.1635 0.4030 0.5452
C2 C -0.0102(11) 0.3076(3) 0.4968(3)
H5 H -0.0463 0.2598 0.5178
H6 H 0.0929 0.2976 0.4641
C3 C -0.2263(9) 0.3426(4) 0.4452(3)
H7 H -0.3026 0.3073 0.4033
H8 H -0.1888 0.3875 0.4194
C4 C -0.3819(10) 0.3629(5) 0.4939(3)
H9 H -0.5172 0.3874 0.4599
H10 H -0.4306 0.3174 0.5157
C5 C -0.2650(8) 0.4150(3) 0.5623(3)
H11 H -0.3690 0.4264 0.5942
H12 H -0.2263 0.4620 0.5404
C6 C -0.0596(7) 0.3808(2) 0.6129(2)
H13 H -0.1040 0.3350 0.6366
C7 C 0.0135(6) 0.43448(19) 0.74798(19)
C8 C 0.3966(6) 0.5824(2) 0.81679(19)
C9 C 0.4100(6) 0.5956(2) 0.9024(2)
C10 C 0.6032(8) 0.6284(2) 0.9515(2)
H14 H 0.7211 0.6445 0.9308
C11 C 0.6182(8) 0.6369(3) 1.0315(2)
H15 H 0.7468 0.6593 1.0662
C12 C 0.4476(9) 0.6130(3) 1.0589(2)
H16 H 0.4564 0.6178 1.1133
C13 C 0.2582(8) 0.5810(3) 1.0066(2)
H17 H 0.1371 0.5662 1.0262
C14 C 0.5374(6) 0.62843(19) 0.77882(19)
C15 C 0.5352(7) 0.7059(2) 0.7814(2)
H18 H 0.4420 0.7303 0.8080
C16 C 0.6668(8) 0.7471(2) 0.7458(2)
H19 H 0.6621 0.7995 0.7474
C17 C 0.8070(8) 0.7119(3) 0.7074(2)
H20 H 0.9002 0.7403 0.6840
C18 C 0.8095(7) 0.6356(3) 0.7033(2)
H21 H 0.9032 0.6115 0.6767
C19 C 0.6764(7) 0.5946(2) 0.7380(2)
H22 H 0.6781 0.5423 0.7343
S1 S 1.17011(19) -0.11719(6) 0.72151(6)
N1 N 0.9425(6) -0.07038(18) 0.82243(17)
H1 H 0.8337 -0.0427 0.8296
N2 N 0.8573(5) -0.01424(17) 0.70161(16)
H2 H 0.8593 -0.0114 0.6521
N3 N 0.7215(5) 0.03206(17) 0.72904(15)
N4 N 0.7589(6) 0.0706(2) 0.57030(18)
C1 C 0.8928(8) -0.1418(3) 0.9343(2)
H3 H 0.7628 -0.1679 0.8989
H4 H 0.8365 -0.0970 0.9548
C2 C 1.0102(11) -0.1924(3) 1.0032(3)
H5 H 1.0463 -0.2402 0.9822
H6 H 0.9071 -0.2024 1.0359
C3 C 1.2263(9) -0.1574(4) 1.0548(3)
H7 H 1.3026 -0.1927 1.0967
H8 H 1.1888 -0.1125 1.0806
C4 C 1.3819(10) -0.1371(5) 1.0061(3)
H9 H 1.5172 -0.1126 1.0401
H10 H 1.4306 -0.1826 0.9843
C5 C 1.2650(8) -0.0850(3) 0.9377(3)
H11 H 1.3690 -0.0736 0.9058
H12 H 1.2263 -0.0380 0.9596
C6 C 1.0596(7) -0.1192(2) 0.8871(2)
H13 H 1.1040 -0.1650 0.8634
C7 C 0.9865(6) -0.06552(19) 0.75202(19)
C8 C 0.6034(6) 0.0824(2) 0.68321(19)
C9 C 0.5900(6) 0.0956(2) 0.5976(2)
C10 C 0.3968(8) 0.1284(2) 0.5485(2)
H14 H 0.2789 0.1445 0.5692
C11 C 0.3818(8) 0.1369(3) 0.4685(2)
H15 H 0.2532 0.1593 0.4338
C12 C 0.5524(9) 0.1130(3) 0.4411(2)
H16 H 0.5436 0.1178 0.3867
C13 C 0.7418(8) 0.0810(3) 0.4934(2)
H17 H 0.8629 0.0662 0.4738
C14 C 0.4626(6) 0.12843(19) 0.72118(19)
C15 C 0.4648(7) 0.2059(2) 0.7186(2)
H18 H 0.5580 0.2303 0.6920
C16 C 0.3332(8) 0.2471(2) 0.7542(2)
H19 H 0.3379 0.2995 0.7526
C17 C 0.1930(8) 0.2119(3) 0.7926(2)
H20 H 0.0998 0.2403 0.8160
C18 C 0.1905(7) 0.1356(3) 0.7967(2)
H21 H 0.0968 0.1115 0.8233
C19 C 0.3236(7) 0.0946(2) 0.7620(2)
H22 H 0.3219 0.0423 0.7657

#END
