
#######################################################################
#
#                 Cambridge Crystallographic Data Centre
#                                CCDC 
#
#######################################################################
#
# If this CIF has been generated from an entry in the Cambridge 
# Structural Database, then it will include bibliographic, chemical, 
# crystal, experimental, refinement or atomic coordinate data resulting 
# from the CCDC's data processing and validation procedures.
#
#######################################################################

data_LAFXAR
_symmetry_cell_setting           orthorhombic
_symmetry_space_group_name_H-M   'P 21 21 21'
_symmetry_Int_Tables_number      19
_space_group_name_Hall           'P 2ac 2ab'
loop_
_symmetry_equiv_pos_site_id
_symmetry_equiv_pos_as_xyz
1 x,y,z
2 1/2+x,1/2-y,-z
3 -x,1/2+y,1/2-z
4 1/2-x,-y,1/2+z
_cell_length_a                   17.04(1)
_cell_length_b                   11.495(6)
_cell_length_c                   9.018(4)
_cell_angle_alpha                90
_cell_angle_beta                 90
_cell_angle_gamma                90
_cell_volume                     1766.4
loop_
_atom_site_label
_atom_site_type_symbol
_atom_site_fract_x
_atom_site_fract_y
_atom_site_fract_z
O1 O 0.5513(2) 0.4538(4) 0.2856(4)
C1 C 0.5572(3) 0.5224(5) 0.4183(6)
C2 C 0.6137(3) 0.4632(4) 0.5213(5)
C3 C 0.5997(3) 0.3505(5) 0.5705(6)
C4 C 0.6520(4) 0.2953(5) 0.6637(6)
C5 C 0.7180(4) 0.3540(6) 0.7079(7)
C6 C 0.7332(3) 0.4661(6) 0.6609(7)
C7 C 0.6814(3) 0.5183(4) 0.5660(6)
N1 N 0.4746(2) 0.5294(4) 0.4683(4)
C8 C 0.4527(3) 0.5538(4) 0.6121(5)
O2 O 0.3862(2) 0.5381(3) 0.6586(4)
C9 C 0.5139(3) 0.6040(4) 0.7109(5)
C10 C 0.5305(3) 0.5484(5) 0.8424(6)
C11 C 0.5863(4) 0.5934(6) 0.9367(6)
C12 C 0.6236(3) 0.6966(6) 0.9026(7)
C13 C 0.6042(3) 0.7540(5) 0.7732(8)
C14 C 0.5500(3) 0.7081(4) 0.6762(6)
C15 C 0.4231(3) 0.5110(4) 0.3413(6)
C16 C 0.4760(4) 0.4393(6) 0.2429(6)
O3 O 0.4597(3) 0.3800(4) 0.1382(5)
C17 C 0.4020(3) 0.6275(5) 0.2579(7)
C18 C 0.3422(3) 0.4540(4) 0.3634(6)
C19 C 0.2847(3) 0.5470(6) 0.2985(8)
C20 C 0.2913(4) 0.6527(6) 0.3940(8)
C21 C 0.3603(4) 0.6999(5) 0.3712(8)
C22 C 0.3322(4) 0.5857(6) 0.1648(7)
H1 H 0.5776 0.6042 0.4092
H2 H 0.5503 0.3093 0.5433
H3 H 0.6408 0.2150 0.6975
H4 H 0.7562 0.3131 0.7675
H5 H 0.7783 0.5082 0.7012
H6 H 0.6942 0.5935 0.5241
H7 H 0.5026 0.4755 0.8666
H8 H 0.5996 0.5522 1.0313
H9 H 0.6634 0.7297 0.9714
H10 H 0.6293 0.8288 0.7509
H11 H 0.5352 0.7503 0.5833
H12 H 0.4435 0.6676 0.2079
H13 H 0.3300 0.4395 0.4671
H14 H 0.3379 0.3789 0.3141
H15 H 0.2323 0.5162 0.2786
H16 H 0.2519 0.6816 0.4595
H17 H 0.3810 0.7664 0.4194
H18 H 0.3058 0.6471 0.1097
H19 H 0.3447 0.5255 0.0963
O1 O 0.0513(2) 1.0462(4) 0.7144(4)
C1 C 0.0572(3) 0.9776(5) 0.5817(6)
C2 C 0.1137(3) 1.0368(4) 0.4787(5)
C3 C 0.0997(3) 1.1495(5) 0.4295(6)
C4 C 0.1520(4) 1.2047(5) 0.3363(6)
C5 C 0.2180(4) 1.1460(6) 0.2921(7)
C6 C 0.2332(3) 1.0339(6) 0.3391(7)
C7 C 0.1814(3) 0.9817(4) 0.4340(6)
N1 N -0.0254(2) 0.9706(4) 0.5317(4)
C8 C -0.0473(3) 0.9462(4) 0.3879(5)
O2 O -0.1138(2) 0.9619(3) 0.3414(4)
C9 C 0.0139(3) 0.8960(4) 0.2891(5)
C10 C 0.0305(3) 0.9516(5) 0.1576(6)
C11 C 0.0863(4) 0.9066(6) 0.0633(6)
C12 C 0.1236(3) 0.8034(6) 0.0974(7)
C13 C 0.1042(3) 0.7460(5) 0.2268(8)
C14 C 0.0500(3) 0.7919(4) 0.3238(6)
C15 C -0.0769(3) 0.9890(4) 0.6587(6)
C16 C -0.0240(4) 1.0607(6) 0.7571(6)
O3 O -0.0403(3) 1.1200(4) 0.8618(5)
C17 C -0.0980(3) 0.8725(5) 0.7421(7)
C18 C -0.1578(3) 1.0460(4) 0.6366(6)
C19 C -0.2153(3) 0.9530(6) 0.7015(8)
C20 C -0.2087(4) 0.8473(6) 0.6060(8)
C21 C -0.1397(4) 0.8001(5) 0.6288(8)
C22 C -0.1678(4) 0.9143(6) 0.8352(7)
H1 H 0.0776 0.8958 0.5908
H2 H 0.0503 1.1907 0.4567
H3 H 0.1408 1.2850 0.3025
H4 H 0.2562 1.1869 0.2325
H5 H 0.2783 0.9918 0.2988
H6 H 0.1942 0.9065 0.4759
H7 H 0.0026 1.0245 0.1334
H8 H 0.0996 0.9478 -0.0313
H9 H 0.1634 0.7703 0.0286
H10 H 0.1293 0.6712 0.2491
H11 H 0.0352 0.7497 0.4167
H12 H -0.0565 0.8324 0.7921
H13 H -0.1700 1.0605 0.5329
H14 H -0.1621 1.1211 0.6859
H15 H -0.2677 0.9838 0.7214
H16 H -0.2481 0.8184 0.5405
H17 H -0.1190 0.7336 0.5806
H18 H -0.1942 0.8529 0.8903
H19 H -0.1553 0.9745 0.9037
O1 O 0.4487(2) -0.0462(4) 1.2144(4)
C1 C 0.4428(3) 0.0224(5) 1.0817(6)
C2 C 0.3863(3) -0.0368(4) 0.9787(5)
C3 C 0.4003(3) -0.1495(5) 0.9295(6)
C4 C 0.3480(4) -0.2047(5) 0.8363(6)
C5 C 0.2820(4) -0.1460(6) 0.7921(7)
C6 C 0.2668(3) -0.0339(6) 0.8391(7)
C7 C 0.3186(3) 0.0183(4) 0.9340(6)
N1 N 0.5254(2) 0.0294(4) 1.0317(4)
C8 C 0.5473(3) 0.0538(4) 0.8879(5)
O2 O 0.6138(2) 0.0381(3) 0.8414(4)
C9 C 0.4861(3) 0.1040(4) 0.7891(5)
C10 C 0.4695(3) 0.0484(5) 0.6576(6)
C11 C 0.4137(4) 0.0934(6) 0.5633(6)
C12 C 0.3764(3) 0.1966(6) 0.5974(7)
C13 C 0.3958(3) 0.2540(5) 0.7268(8)
C14 C 0.4500(3) 0.2081(4) 0.8238(6)
C15 C 0.5769(3) 0.0110(4) 1.1587(6)
C16 C 0.5240(4) -0.0607(6) 1.2571(6)
O3 O 0.5403(3) -0.1200(4) 1.3618(5)
C17 C 0.5980(3) 0.1275(5) 1.2421(7)
C18 C 0.6578(3) -0.0460(4) 1.1366(6)
C19 C 0.7153(3) 0.0470(6) 1.2015(8)
C20 C 0.7087(4) 0.1527(6) 1.1060(8)
C21 C 0.6397(4) 0.1999(5) 1.1288(8)
C22 C 0.6678(4) 0.0857(6) 1.3352(7)
H1 H 0.4224 0.1042 1.0908
H2 H 0.4497 -0.1907 0.9567
H3 H 0.3592 -0.2850 0.8025
H4 H 0.2438 -0.1869 0.7325
H5 H 0.2217 0.0082 0.7988
H6 H 0.3058 0.0935 0.9759
H7 H 0.4974 -0.0245 0.6334
H8 H 0.4004 0.0522 0.4687
H9 H 0.3366 0.2297 0.5286
H10 H 0.3707 0.3288 0.7491
H11 H 0.4648 0.2503 0.9167
H12 H 0.5565 0.1676 1.2921
H13 H 0.6700 -0.0605 1.0329
H14 H 0.6621 -0.1211 1.1859
H15 H 0.7677 0.0162 1.2214
H16 H 0.7481 0.1816 1.0405
H17 H 0.6190 0.2664 1.0806
H18 H 0.6942 0.1471 1.3903
H19 H 0.6553 0.0255 1.4037
O1 O 0.9487(2) 0.5462(4) -0.2144(4)
C1 C 0.9428(3) 0.4776(5) -0.0817(6)
C2 C 0.8863(3) 0.5368(4) 0.0213(5)
C3 C 0.9003(3) 0.6495(5) 0.0705(6)
C4 C 0.8480(4) 0.7047(5) 0.1637(6)
C5 C 0.7820(4) 0.6460(6) 0.2079(7)
C6 C 0.7668(3) 0.5339(6) 0.1609(7)
C7 C 0.8186(3) 0.4817(4) 0.0660(6)
N1 N 1.0254(2) 0.4706(4) -0.0317(4)
C8 C 1.0473(3) 0.4462(4) 0.1121(5)
O2 O 1.1138(2) 0.4619(3) 0.1586(4)
C9 C 0.9861(3) 0.3960(4) 0.2109(5)
C10 C 0.9695(3) 0.4516(5) 0.3424(6)
C11 C 0.9137(4) 0.4066(6) 0.4367(6)
C12 C 0.8764(3) 0.3034(6) 0.4026(7)
C13 C 0.8958(3) 0.2460(5) 0.2732(8)
C14 C 0.9500(3) 0.2919(4) 0.1762(6)
C15 C 1.0769(3) 0.4890(4) -0.1587(6)
C16 C 1.0240(4) 0.5607(6) -0.2571(6)
O3 O 1.0403(3) 0.6200(4) -0.3618(5)
C17 C 1.0980(3) 0.3725(5) -0.2421(7)
C18 C 1.1578(3) 0.5460(4) -0.1366(6)
C19 C 1.2153(3) 0.4530(6) -0.2015(8)
C20 C 1.2087(4) 0.3473(6) -0.1060(8)
C21 C 1.1397(4) 0.3001(5) -0.1288(8)
C22 C 1.1678(4) 0.4143(6) -0.3352(7)
H1 H 0.9224 0.3958 -0.0908
H2 H 0.9497 0.6907 0.0433
H3 H 0.8592 0.7850 0.1975
H4 H 0.7438 0.6869 0.2675
H5 H 0.7217 0.4918 0.2012
H6 H 0.8058 0.4065 0.0241
H7 H 0.9974 0.5245 0.3666
H8 H 0.9004 0.4478 0.5313
H9 H 0.8366 0.2703 0.4714
H10 H 0.8707 0.1712 0.2509
H11 H 0.9648 0.2497 0.0833
H12 H 1.0565 0.3324 -0.2921
H13 H 1.1700 0.5605 -0.0329
H14 H 1.1621 0.6211 -0.1859
H15 H 1.2677 0.4838 -0.2214
H16 H 1.2481 0.3184 -0.0405
H17 H 1.1190 0.2336 -0.0806
H18 H 1.1942 0.3529 -0.3903
H19 H 1.1553 0.4745 -0.4037

#END
