
#######################################################################
#
#                 Cambridge Crystallographic Data Centre
#                                CCDC 
#
#######################################################################
#
# If this CIF has been generated from an entry in the Cambridge 
# Structural Database, then it will include bibliographic, chemical, 
# crystal, experimental, refinement or atomic coordinate data resulting 
# from the CCDC's data processing and validation procedures.
#
#######################################################################

data_LAFYIA
_symmetry_cell_setting           monoclinic
_symmetry_space_group_name_H-M   'P 21/c'
_symmetry_Int_Tables_number      14
_space_group_name_Hall           '-P 2ybc'
loop_
_symmetry_equiv_pos_site_id
_symmetry_equiv_pos_as_xyz
1 x,y,z
2 -x,1/2+y,1/2-z
3 -x,-y,-z
4 x,1/2-y,1/2+z
_cell_length_a                   5.8764(9)
_cell_length_b                   17.9744(13)
_cell_length_c                   12.2957(13)
_cell_angle_alpha                90
_cell_angle_beta                 110.070(10)
_cell_angle_gamma                90
_cell_volume                     1219.86
loop_
_atom_site_label
_atom_site_type_symbol
_atom_site_fract_x
_atom_site_fract_y
_atom_site_fract_z
N1 N -0.3484(3) 0.20078(11) 0.42652(13)
C1 C -0.5202(4) 0.14748(13) 0.37943(17)
C2 C -0.4271(4) 0.08151(15) 0.4267(2)
C3 C -0.1903(4) 0.09462(12) 0.50572(17)
C4 C -0.1452(3) 0.16917(10) 0.50444(14)
C5 C 0.0793(3) 0.21434(11) 0.56404(16)
N2 N 0.4541(3) 0.14045(10) 0.66086(17)
C6 C 0.2520(3) 0.17382(10) 0.66708(16)
C7 C 0.2527(4) 0.16210(13) 0.77721(18)
C8 C 0.4596(4) 0.12036(12) 0.8380(2)
C9 C 0.5792(4) 0.10792(13) 0.7646(2)
C10 C 0.0248(3) 0.29259(10) 0.59596(14)
C11 C 0.1427(4) 0.35324(12) 0.56998(17)
C12 C 0.1037(4) 0.42460(13) 0.6012(2)
C13 C -0.0568(4) 0.43645(13) 0.6579(2)
C14 C -0.1777(4) 0.37727(12) 0.6846(2)
C15 C -0.1378(4) 0.30569(12) 0.65344(17)
H1 H -0.369(4) 0.2510(13) 0.4075(17)
H2 H 0.492(5) 0.1369(14) 0.594(2)
H3 H -0.678(4) 0.1628(11) 0.3217(19)
H4 H -0.511(4) 0.0387(13) 0.406(2)
H5 H -0.080(3) 0.0599(10) 0.5526(16)
H6 H 0.165(3) 0.2204(10) 0.5097(15)
H7 H 0.140(4) 0.1819(12) 0.8057(19)
H8 H 0.505(4) 0.1037(10) 0.916(2)
H9 H 0.724(4) 0.0842(14) 0.773(2)
H10 H 0.254(4) 0.3442(11) 0.5313(18)
H11 H 0.191(4) 0.4671(14) 0.582(2)
H12 H -0.093(4) 0.4874(13) 0.6791(18)
H13 H -0.288(4) 0.3863(12) 0.7258(18)
H14 H -0.221(3) 0.2661(10) 0.6722(15)
N1 N 1.3484(3) 0.70078(11) 1.07348(13)
C1 C 1.5202(4) 0.64748(13) 1.12057(17)
C2 C 1.4271(4) 0.58151(15) 1.0733(2)
C3 C 1.1903(4) 0.59462(12) 0.99428(17)
C4 C 1.1452(3) 0.66917(10) 0.99556(14)
C5 C 0.9207(3) 0.71434(11) 0.93596(16)
N2 N 0.5459(3) 0.64045(10) 0.83914(17)
C6 C 0.7480(3) 0.67382(10) 0.83292(16)
C7 C 0.7473(4) 0.66210(13) 0.72279(18)
C8 C 0.5404(4) 0.62036(12) 0.6620(2)
C9 C 0.4208(4) 0.60792(13) 0.7354(2)
C10 C 0.9752(3) 0.79259(10) 0.90404(14)
C11 C 0.8573(4) 0.85324(12) 0.93002(17)
C12 C 0.8963(4) 0.92460(13) 0.8988(2)
C13 C 1.0568(4) 0.93645(13) 0.8421(2)
C14 C 1.1777(4) 0.87727(12) 0.8154(2)
C15 C 1.1378(4) 0.80569(12) 0.84656(17)
H1 H 1.369(4) 0.7510(13) 1.0925(17)
H2 H 0.508(5) 0.6369(14) 0.906(2)
H3 H 1.678(4) 0.6628(11) 1.1783(19)
H4 H 1.511(4) 0.5387(13) 1.094(2)
H5 H 1.080(3) 0.5599(10) 0.9474(16)
H6 H 0.835(3) 0.7204(10) 0.9903(15)
H7 H 0.860(4) 0.6819(12) 0.6943(19)
H8 H 0.495(4) 0.6037(10) 0.584(2)
H9 H 0.276(4) 0.5842(14) 0.727(2)
H10 H 0.746(4) 0.8442(11) 0.9687(18)
H11 H 0.809(4) 0.9671(14) 0.918(2)
H12 H 1.093(4) 0.9874(13) 0.8209(18)
H13 H 1.288(4) 0.8863(12) 0.7742(18)
H14 H 1.221(3) 0.7661(10) 0.8278(15)
N1 N 1.3484(3) 0.79922(11) 0.57348(13)
C1 C 1.5202(4) 0.85252(13) 0.62057(17)
C2 C 1.4271(4) 0.91849(15) 0.5733(2)
C3 C 1.1903(4) 0.90538(12) 0.49428(17)
C4 C 1.1452(3) 0.83083(10) 0.49556(14)
C5 C 0.9207(3) 0.78566(11) 0.43596(16)
N2 N 0.5459(3) 0.85955(10) 0.33914(17)
C6 C 0.7480(3) 0.82618(10) 0.33292(16)
C7 C 0.7473(4) 0.83790(13) 0.22279(18)
C8 C 0.5404(4) 0.87964(12) 0.1620(2)
C9 C 0.4208(4) 0.89208(13) 0.2354(2)
C10 C 0.9752(3) 0.70741(10) 0.40404(14)
C11 C 0.8573(4) 0.64676(12) 0.43002(17)
C12 C 0.8963(4) 0.57540(13) 0.3988(2)
C13 C 1.0568(4) 0.56355(13) 0.3421(2)
C14 C 1.1777(4) 0.62273(12) 0.3154(2)
C15 C 1.1378(4) 0.69431(12) 0.34656(17)
H1 H 1.369(4) 0.7490(13) 0.5925(17)
H2 H 0.508(5) 0.8631(14) 0.406(2)
H3 H 1.678(4) 0.8372(11) 0.6783(19)
H4 H 1.511(4) 0.9613(13) 0.594(2)
H5 H 1.080(3) 0.9401(10) 0.4474(16)
H6 H 0.835(3) 0.7796(10) 0.4903(15)
H7 H 0.860(4) 0.8181(12) 0.1943(19)
H8 H 0.495(4) 0.8963(10) 0.084(2)
H9 H 0.276(4) 0.9158(14) 0.227(2)
H10 H 0.746(4) 0.6558(11) 0.4687(18)
H11 H 0.809(4) 0.5329(14) 0.418(2)
H12 H 1.093(4) 0.5126(13) 0.3209(18)
H13 H 1.288(4) 0.6137(12) 0.2742(18)
H14 H 1.221(3) 0.7339(10) 0.3278(15)
N1 N -0.3484(3) 0.29922(11) -0.07348(13)
C1 C -0.5202(4) 0.35252(13) -0.12057(17)
C2 C -0.4271(4) 0.41849(15) -0.0733(2)
C3 C -0.1903(4) 0.40538(12) 0.00572(17)
C4 C -0.1452(3) 0.33083(10) 0.00444(14)
C5 C 0.0793(3) 0.28566(11) 0.06404(16)
N2 N 0.4541(3) 0.35955(10) 0.16086(17)
C6 C 0.2520(3) 0.32618(10) 0.16708(16)
C7 C 0.2527(4) 0.33790(13) 0.27721(18)
C8 C 0.4596(4) 0.37964(12) 0.3380(2)
C9 C 0.5792(4) 0.39208(13) 0.2646(2)
C10 C 0.0248(3) 0.20741(10) 0.09596(14)
C11 C 0.1427(4) 0.14676(12) 0.06998(17)
C12 C 0.1037(4) 0.07540(13) 0.1012(2)
C13 C -0.0568(4) 0.06355(13) 0.1579(2)
C14 C -0.1777(4) 0.12273(12) 0.1846(2)
C15 C -0.1378(4) 0.19431(12) 0.15344(17)
H1 H -0.369(4) 0.2490(13) -0.0925(17)
H2 H 0.492(5) 0.3631(14) 0.094(2)
H3 H -0.678(4) 0.3372(11) -0.1783(19)
H4 H -0.511(4) 0.4613(13) -0.094(2)
H5 H -0.080(3) 0.4401(10) 0.0526(16)
H6 H 0.165(3) 0.2796(10) 0.0097(15)
H7 H 0.140(4) 0.3181(12) 0.3057(19)
H8 H 0.505(4) 0.3963(10) 0.416(2)
H9 H 0.724(4) 0.4158(14) 0.273(2)
H10 H 0.254(4) 0.1558(11) 0.0313(18)
H11 H 0.191(4) 0.0329(14) 0.082(2)
H12 H -0.093(4) 0.0126(13) 0.1791(18)
H13 H -0.288(4) 0.1137(12) 0.2258(18)
H14 H -0.221(3) 0.2339(10) 0.1722(15)

#END
