./LAFYIA_from_POSCAR.cif_generated_by_CrystalShift
_symmetry_cell_setting triclinic
_symmetry_space_group_name_H-M 'P 1'
loop_
_symmetry_equiv_pos_site_id
_symmetry_equiv_pos_as_xyz
1 x,y,z
_cell_length_a 5.876400
_cell_length_b 17.974400
_cell_length_c 12.295700
_cell_angle_alpha 90.000000
_cell_angle_beta 110.070000
_cell_angle_gamma 90.000000
_cell_volume 1219.863792
loop_
_atom_site_label
_atom_site_type_symbol
_atom_site_fract_x
_atom_site_fract_y
_atom_site_fract_z
H1 H -0.221000 0.233900 0.172200
H2 H -0.093000 0.012600 0.179100
H3 H 0.191000 0.032900 0.082000
H4 H 0.254000 0.155800 0.031300
H5 H 0.724000 0.415800 0.273000
H6 H 0.505000 0.396300 0.416000
H7 H 0.140000 0.318100 0.305700
H8 H 0.165000 0.279600 0.009700
H9 H -0.080000 0.440100 0.052600
H10 H -0.511000 0.461300 -0.094000
H11 H -0.678000 0.337200 -0.178300
H12 H 0.492000 0.363100 0.094000
H13 H -0.369000 0.249000 -0.092500
H14 H 1.221000 0.733900 0.327800
H15 H 1.288000 0.613700 0.274200
H16 H 1.093000 0.512600 0.320900
H17 H 0.809000 0.532900 0.418000
H18 H -0.369000 0.251000 0.407500
H19 H 0.492000 0.136900 0.594000
H20 H -0.678000 0.162800 0.321700
H21 H -0.511000 0.038700 0.406000
H22 H -0.080000 0.059900 0.552600
H23 H 0.165000 0.220400 0.509700
H24 H 0.140000 0.181900 0.805700
H25 H 0.505000 0.103700 0.916000
H26 H 0.724000 0.084200 0.773000
H27 H 0.254000 0.344200 0.531300
H28 H 0.191000 0.467100 0.582000
H29 H -0.093000 0.487400 0.679100
H30 H -0.288000 0.386300 0.725800
H31 H -0.221000 0.266100 0.672200
H32 H 0.746000 0.655800 0.468700
H33 H 0.276000 0.915800 0.227000
H34 H 0.495000 0.896300 0.084000
H35 H 0.860000 0.818100 0.194300
H36 H 0.835000 0.779600 0.490300
H37 H 1.080000 0.940100 0.447400
H38 H 1.511000 0.961300 0.594000
H39 H 1.678000 0.837200 0.678300
H40 H 0.508000 0.863100 0.406000
H41 H 1.369000 0.749000 0.592500
H42 H 1.221000 0.766100 0.827800
H43 H 1.288000 0.886300 0.774200
H44 H 1.093000 0.987400 0.820900
H45 H 0.809000 0.967100 0.918000
H46 H 0.746000 0.844200 0.968700
H47 H 0.276000 0.584200 0.727000
H48 H 0.495000 0.603700 0.584000
H49 H 1.369000 0.751000 1.092500
H50 H 0.508000 0.636900 0.906000
H51 H 1.678000 0.662800 1.178300
H52 H 1.511000 0.538700 1.094000
H53 H 1.080000 0.559900 0.947400
H54 H 0.835000 0.720400 0.990300
H55 H 0.860000 0.681900 0.694300
H56 H -0.288000 0.113700 0.225800
C57 C 1.177700 0.877270 0.815400
C58 C 1.056800 0.936450 0.842100
C59 C 0.896300 0.924600 0.898800
C60 C 0.857300 0.853240 0.930020
C61 C 0.975200 0.792590 0.904040
C62 C 0.420800 0.607920 0.735400
C63 C -0.520200 0.147480 0.379430
C64 C 1.520200 0.852520 0.620570
C65 C 1.427100 0.918490 0.573300
C66 C 1.190300 0.905380 0.494280
C67 C 1.145200 0.830830 0.495560
C68 C 0.920700 0.785660 0.435960
C69 C -0.427100 0.081510 0.426700
C70 C 0.748000 0.826180 0.332920
C71 C 0.747300 0.837900 0.222790
C72 C 0.540400 0.879640 0.162000
C73 C 0.420800 0.892080 0.235400
C74 C 0.975200 0.707410 0.404040
C75 C 0.857300 0.646760 0.430020
C76 C 0.896300 0.575400 0.398800
C77 C 1.056800 0.563550 0.342100
C78 C 1.177700 0.622730 0.315400
C79 C 1.137800 0.694310 0.346560
C80 C 0.540400 0.620360 0.662000
C81 C 0.747300 0.662100 0.722790
C82 C 0.748000 0.673820 0.832920
C83 C -0.190300 0.094620 0.505720
C84 C 0.920700 0.714340 0.935960
C85 C 1.145200 0.669170 0.995560
C86 C 1.190300 0.594620 0.994280
C87 C 1.427100 0.581510 1.073300
C88 C 1.520200 0.647480 1.120570
C89 C -0.145200 0.169170 0.504440
C90 C -0.137800 0.305690 0.653440
C91 C -0.177700 0.377270 0.684600
C92 C -0.056800 0.436450 0.657900
C93 C 0.103700 0.424600 0.601200
C94 C 0.079300 0.214340 0.564040
C95 C -0.520200 0.352520 -0.120570
C96 C -0.427100 0.418490 -0.073300
C97 C -0.190300 0.405380 0.005720
C98 C -0.145200 0.330830 0.004440
C99 C 0.079300 0.285660 0.064040
C100 C 0.252000 0.173820 0.667080
C101 C 0.252000 0.326180 0.167080
C102 C 0.252700 0.337900 0.277210
C103 C 0.459600 0.379640 0.338000
C104 C 0.579200 0.392080 0.264600
C105 C 0.024800 0.207410 0.095960
C106 C 0.142700 0.146760 0.069980
C107 C 0.103700 0.075400 0.101200
C108 C -0.056800 0.063550 0.157900
C109 C -0.177700 0.122730 0.184600
C110 C -0.137800 0.194310 0.153440
C111 C 0.142700 0.353240 0.569980
C112 C 0.024800 0.292590 0.595960
C113 C 0.579200 0.107920 0.764600
C114 C 0.459600 0.120360 0.838000
C115 C 0.252700 0.162100 0.777210
C116 C 1.137800 0.805690 0.846560
N117 N -0.348400 0.299220 -0.073480
N118 N 1.348400 0.700780 1.073480
N119 N 0.545900 0.640450 0.839140
N120 N 0.545900 0.859550 0.339140
N121 N 1.348400 0.799220 0.573480
N122 N 0.454100 0.140450 0.660860
N123 N 0.454100 0.359550 0.160860
N124 N -0.348400 0.200780 0.426520

#END
