./LAFYOG_from_POSCAR.cif_generated_by_CrystalShift
_symmetry_cell_setting triclinic
_symmetry_space_group_name_H-M 'P 1'
loop_
_symmetry_equiv_pos_site_id
_symmetry_equiv_pos_as_xyz
1 x,y,z
_cell_length_a 12.900000
_cell_length_b 8.995000
_cell_length_c 11.010000
_cell_angle_alpha 90.000000
_cell_angle_beta 94.720000
_cell_angle_gamma 90.000000
_cell_volume 1273.218328
loop_
_atom_site_label
_atom_site_type_symbol
_atom_site_fract_x
_atom_site_fract_y
_atom_site_fract_z
H1 H 0.634800 -0.039000 0.995600
H2 H 0.687100 0.023600 0.886200
H3 H 0.562300 0.125800 1.129200
H4 H 0.522500 0.359400 1.198800
H5 H 0.649600 0.671100 1.190800
H6 H 0.544000 0.615200 1.203000
H7 H 0.563300 0.684500 1.086300
H8 H 0.885100 0.561300 1.044300
H9 H 0.815700 0.674000 1.119100
H10 H 0.868100 0.725800 0.990300
H11 H 0.688400 0.668300 0.950200
H12 H 0.795900 0.648400 0.790500
H13 H 0.693200 0.534200 0.770200
H14 H 0.892300 0.032000 0.798200
H15 H 1.006500 0.058700 0.864300
H16 H 0.938700 0.148600 0.758400
H17 H 0.754500 0.274300 0.309800
H18 H 0.905900 0.047100 0.366900
H19 H 0.854400 0.099800 0.240000
H20 H 0.938700 0.351400 0.258400
H21 H 1.006500 0.441300 0.364300
H22 H 0.892300 0.468000 0.298200
H23 H 0.693200 -0.034200 0.270200
H24 H 0.795900 -0.148400 0.290500
H25 H 0.688400 -0.168300 0.450200
H26 H 0.868100 -0.225800 0.490300
H27 H 0.815700 -0.174000 0.619100
H28 H 0.885100 -0.061300 0.544300
H29 H 0.563300 -0.184500 0.586300
H30 H 0.544000 -0.115200 0.703000
H31 H 0.649600 -0.171100 0.690800
H32 H 0.522500 0.140600 0.698800
H33 H 0.562300 0.374200 0.629200
H34 H 0.687100 0.476400 0.386200
H35 H 0.754500 0.504500 0.508500
H36 H 0.634800 0.539000 0.495600
H37 H 0.854400 0.400200 0.740000
H38 H 0.905900 0.452900 0.866900
H39 H 0.754500 0.225700 0.809800
H40 H 0.365200 0.461000 0.504400
H41 H 0.245500 0.495500 0.491500
H42 H 0.312900 0.523600 0.613800
H43 H 0.437700 0.625800 0.370800
H44 H 0.477500 0.859400 0.301200
H45 H 0.350400 1.171100 0.309200
H46 H 0.456000 1.115200 0.297000
H47 H 0.436700 1.184500 0.413700
H48 H 0.114900 1.061300 0.455700
H49 H 0.184300 1.174000 0.380900
H50 H 0.131900 1.225800 0.509700
H51 H 0.311600 1.168300 0.549800
H52 H 0.204100 1.148400 0.709500
H53 H 0.245500 0.774300 0.190200
H54 H 0.094100 0.547100 0.133100
H55 H 0.145600 0.599800 0.260000
H56 H 0.061300 0.851400 0.241600
H57 H -0.006500 0.941300 0.135700
H58 H 0.107700 0.968000 0.201800
H59 H 0.306800 0.465800 0.229800
H60 H 0.204100 0.351600 0.209500
H61 H 0.311600 0.331700 0.049800
H62 H 0.131900 0.274200 0.009700
H63 H 0.184300 0.326000 -0.119100
H64 H 0.114900 0.438700 -0.044300
H65 H 0.436700 0.315500 -0.086300
H66 H 0.456000 0.384800 -0.203000
H67 H 0.350400 0.328900 -0.190800
H68 H 0.477500 0.640600 -0.198800
H69 H 0.437700 0.874200 -0.129200
H70 H 0.312900 0.976400 0.113800
H71 H 0.245500 1.004500 -0.008500
H72 H 0.365200 1.039000 0.004400
H73 H 0.306800 1.034200 0.729800
H74 H 0.107700 0.532000 0.701800
H75 H -0.006500 0.558700 0.635700
H76 H 0.061300 0.648600 0.741600
H77 H 0.145600 0.900200 0.760000
H78 H 0.094100 0.952900 0.633100
H79 H 0.245500 0.725700 0.690200
H80 H 0.754500 -0.004500 1.008500
C81 C 0.164200 1.142000 0.468000
C82 C 0.379900 0.973000 0.402400
C83 C 0.407800 1.124200 0.356200
C84 C 0.426400 0.848600 0.357700
C85 C 0.405400 0.709200 0.398800
C86 C 0.335000 0.686000 0.485600
C87 C 0.285000 0.810400 0.531400
C88 C 0.314800 0.530300 0.526700
C89 C 0.259500 1.088100 0.546300
C90 C 0.236100 1.056000 0.677700
C91 C 0.058800 0.606500 0.670200
C92 C 0.163300 0.925000 0.682700
C93 C 0.114600 0.692900 0.578700
C94 C 0.208100 0.783900 0.627000
C95 C 0.791900 0.216100 0.373000
C96 C 0.314800 0.969700 0.026700
C97 C 0.285000 0.689600 0.031400
C98 C 0.335000 0.814000 -0.014400
C99 C 0.405400 0.790800 -0.101200
C100 C 0.426400 0.651400 -0.142300
C101 C 0.407800 0.375800 -0.143800
C102 C 0.379900 0.527000 -0.097600
C103 C 0.164200 0.358000 -0.032000
C104 C 0.308400 0.546500 -0.008100
C105 C 0.259500 0.411900 0.046300
C106 C 0.236100 0.444000 0.177700
C107 C 0.058800 0.893500 0.170200
C108 C 0.163300 0.575000 0.182700
C109 C 0.885400 0.307100 0.421300
C110 C 0.791900 0.283900 0.873000
C111 C 0.885400 0.192900 0.921300
C112 C 0.836700 0.425000 0.817300
C113 C 0.941200 0.106500 0.829800
C114 C 0.763900 0.556000 0.822300
C115 C 0.740500 0.588100 0.953700
C116 C 0.691600 0.453500 1.008100
C117 C 0.835800 0.642000 1.032000
C118 C 0.620100 0.473000 1.097600
C119 C 0.592200 0.624200 1.143800
C120 C 0.573600 0.348600 1.142300
C121 C 0.594600 0.209200 1.101200
C122 C 0.665000 0.186000 1.014400
C123 C 0.715000 0.310400 0.968600
C124 C 0.685200 0.030300 0.973300
C125 C 0.114600 0.807100 0.078700
C126 C 0.208100 0.716100 0.127000
C127 C 0.836700 0.075000 0.317300
C128 C 0.685200 0.469700 0.473300
C129 C 0.715000 0.189600 0.468600
C130 C 0.665000 0.314000 0.514400
C131 C 0.594600 0.290800 0.601200
C132 C 0.573600 0.151400 0.642300
C133 C 0.592200 -0.124200 0.643800
C134 C 0.620100 0.027000 0.597600
C135 C 0.835800 -0.142000 0.532000
C136 C 0.691600 0.046500 0.508100
C137 C 0.740500 -0.088100 0.453700
C138 C 0.763900 -0.056000 0.322300
C139 C 0.941200 0.393500 0.329800
C140 C 0.308400 0.953500 0.491900
O141 O 0.082300 0.695600 0.472800
O142 O 0.917700 0.195600 1.027200
O143 O 0.082300 0.804400 -0.027200
O144 O 0.917700 0.304400 0.527200

#END
