
#######################################################################
#
#                 Cambridge Crystallographic Data Centre
#                                CCDC 
#
#######################################################################
#
# If this CIF has been generated from an entry in the Cambridge 
# Structural Database, then it will include bibliographic, chemical, 
# crystal, experimental, refinement or atomic coordinate data resulting 
# from the CCDC's data processing and validation procedures.
#
#######################################################################

data_LAFZUN
_symmetry_cell_setting           monoclinic
_symmetry_space_group_name_H-M   'P 21/n'
_symmetry_Int_Tables_number      14
_space_group_name_Hall           '-P 2yn'
loop_
_symmetry_equiv_pos_site_id
_symmetry_equiv_pos_as_xyz
1 x,y,z
2 1/2-x,1/2+y,1/2-z
3 -x,-y,-z
4 1/2+x,1/2-y,1/2+z
_cell_length_a                   10.555(4)
_cell_length_b                   8.356(9)
_cell_length_c                   19.146(6)
_cell_angle_alpha                90
_cell_angle_beta                 90.30(3)
_cell_angle_gamma                90
_cell_volume                     1688.61
loop_
_atom_site_label
_atom_site_type_symbol
_atom_site_fract_x
_atom_site_fract_y
_atom_site_fract_z
S1 S 0.8164(2) 0.4889(3) -0.0004(1)
O1 O 0.5359(5) 0.1646(6) 0.1455(2)
O2 O 0.4268(6) 0.2503(8) -0.0910(3)
O3 O 0.2792(5) 0.0822(7) -0.0189(3)
N1 N 0.6580(5) 0.3119(7) 0.0712(3)
N2 N 0.6022(6) 0.3585(8) -0.0448(3)
N3 N 0.3222(5) 0.0442(7) 0.0967(3)
C1 C 0.8095(8) 0.5407(10) -0.0913(4)
C2 C 0.6797(7) 0.3766(8) 0.0062(3)
C3 C 0.5489(7) 0.2188(9) 0.0858(4)
C4 C 0.4972(7) 0.2668(9) -0.0360(4)
C5 C 0.4666(7) 0.1939(9) 0.0288(4)
C6 C 0.3497(7) 0.1025(9) 0.0333(4)
C7 C 0.7493(7) 0.3295(9) 0.1284(3)
C8 C 0.7292(7) 0.4469(9) 0.1784(3)
C9 C 0.8138(7) 0.4560(10) 0.2350(4)
C10 C 0.9139(7) 0.3526(9) 0.2388(4)
C11 C 0.9346(8) 0.2381(9) 0.1886(4)
C12 C 0.8475(6) 0.2244(9) 0.1320(3)
C13 C 0.2137(7) -0.0402(9) 0.1195(3)
C14 C 0.1130(7) -0.0814(9) 0.0784(4)
C15 C 0.0097(8) -0.1618(10) 0.1086(4)
C16 C 0.0110(9) -0.1982(11) 0.1778(4)
C17 C 0.1106(8) -0.1590(11) 0.2186(5)
C18 C 0.2147(8) -0.0794(10) 0.1900(4)
H1 H 0.368(7) 0.193(9) -0.076(4)
H2 H 0.409(6) 0.064(8) 0.140(3)
H3 H 0.891(1) 0.613(1) -0.105(1)
H4 H 0.724(1) 0.607(1) -0.102(1)
H5 H 0.810(1) 0.433(1) -0.122(1)
H6 H 0.651(1) 0.529(1) 0.174(1)
H7 H 0.800(1) 0.545(1) 0.275(1)
H8 H 0.978(1) 0.361(1) 0.283(1)
H9 H 1.016(1) 0.160(1) 0.192(1)
H10 H 0.859(1) 0.133(1) 0.093(1)
H11 H 0.113(1) -0.053(1) 0.023(1)
H12 H -0.071(1) -0.194(1) 0.077(1)
H13 H -0.069(1) -0.260(1) 0.200(1)
H14 H 0.110(1) -0.189(1) 0.273(1)
H15 H 0.295(1) -0.048(1) 0.223(1)
S1 S 0.6836(2) 0.9889(3) 0.5004(1)
O1 O 0.9641(5) 0.6646(6) 0.3545(2)
O2 O 1.0732(6) 0.7503(8) 0.5910(3)
O3 O 1.2208(5) 0.5822(7) 0.5189(3)
N1 N 0.8420(5) 0.8119(7) 0.4288(3)
N2 N 0.8978(6) 0.8585(8) 0.5448(3)
N3 N 1.1778(5) 0.5442(7) 0.4033(3)
C1 C 0.6905(8) 1.0407(10) 0.5913(4)
C2 C 0.8203(7) 0.8766(8) 0.4938(3)
C3 C 0.9511(7) 0.7188(9) 0.4142(4)
C4 C 1.0028(7) 0.7668(9) 0.5360(4)
C5 C 1.0334(7) 0.6939(9) 0.4712(4)
C6 C 1.1503(7) 0.6025(9) 0.4667(4)
C7 C 0.7507(7) 0.8295(9) 0.3716(3)
C8 C 0.7708(7) 0.9469(9) 0.3216(3)
C9 C 0.6862(7) 0.9560(10) 0.2650(4)
C10 C 0.5861(7) 0.8526(9) 0.2612(4)
C11 C 0.5654(8) 0.7381(9) 0.3114(4)
C12 C 0.6525(6) 0.7244(9) 0.3680(3)
C13 C 1.2863(7) 0.4598(9) 0.3805(3)
C14 C 1.3870(7) 0.4186(9) 0.4216(4)
C15 C 1.4903(8) 0.3382(10) 0.3914(4)
C16 C 1.4890(9) 0.3018(11) 0.3222(4)
C17 C 1.3894(8) 0.3410(11) 0.2814(5)
C18 C 1.2853(8) 0.4206(10) 0.3100(4)
H1 H 1.132(7) 0.693(9) 0.576(4)
H2 H 1.091(6) 0.564(8) 0.360(3)
H3 H 0.609(1) 1.113(1) 0.605(1)
H4 H 0.776(1) 1.107(1) 0.602(1)
H5 H 0.690(1) 0.933(1) 0.622(1)
H6 H 0.849(1) 1.029(1) 0.326(1)
H7 H 0.700(1) 1.045(1) 0.225(1)
H8 H 0.522(1) 0.861(1) 0.217(1)
H9 H 0.484(1) 0.660(1) 0.308(1)
H10 H 0.641(1) 0.633(1) 0.407(1)
H11 H 1.387(1) 0.447(1) 0.477(1)
H12 H 1.571(1) 0.306(1) 0.423(1)
H13 H 1.569(1) 0.240(1) 0.300(1)
H14 H 1.390(1) 0.311(1) 0.227(1)
H15 H 1.205(1) 0.452(1) 0.277(1)
S1 S 0.1836(2) 0.5111(3) 1.0004(1)
O1 O 0.4641(5) 0.8354(6) 0.8545(2)
O2 O 0.5732(6) 0.7497(8) 1.0910(3)
O3 O 0.7208(5) 0.9178(7) 1.0189(3)
N1 N 0.3420(5) 0.6881(7) 0.9288(3)
N2 N 0.3978(6) 0.6415(8) 1.0448(3)
N3 N 0.6778(5) 0.9558(7) 0.9033(3)
C1 C 0.1905(8) 0.4593(10) 1.0913(4)
C2 C 0.3203(7) 0.6234(8) 0.9938(3)
C3 C 0.4511(7) 0.7812(9) 0.9142(4)
C4 C 0.5028(7) 0.7332(9) 1.0360(4)
C5 C 0.5334(7) 0.8061(9) 0.9712(4)
C6 C 0.6503(7) 0.8975(9) 0.9667(4)
C7 C 0.2507(7) 0.6705(9) 0.8716(3)
C8 C 0.2708(7) 0.5531(9) 0.8216(3)
C9 C 0.1862(7) 0.5440(10) 0.7650(4)
C10 C 0.0861(7) 0.6474(9) 0.7612(4)
C11 C 0.0654(8) 0.7619(9) 0.8114(4)
C12 C 0.1525(6) 0.7756(9) 0.8680(3)
C13 C 0.7863(7) 1.0402(9) 0.8805(3)
C14 C 0.8870(7) 1.0814(9) 0.9216(4)
C15 C 0.9903(8) 1.1618(10) 0.8914(4)
C16 C 0.9890(9) 1.1982(11) 0.8222(4)
C17 C 0.8894(8) 1.1590(11) 0.7814(5)
C18 C 0.7853(8) 1.0794(10) 0.8100(4)
H1 H 0.632(7) 0.807(9) 1.076(4)
H2 H 0.591(6) 0.936(8) 0.860(3)
H3 H 0.109(1) 0.387(1) 1.105(1)
H4 H 0.276(1) 0.393(1) 1.102(1)
H5 H 0.190(1) 0.567(1) 1.122(1)
H6 H 0.349(1) 0.471(1) 0.826(1)
H7 H 0.200(1) 0.455(1) 0.725(1)
H8 H 0.022(1) 0.639(1) 0.717(1)
H9 H -0.016(1) 0.840(1) 0.808(1)
H10 H 0.141(1) 0.867(1) 0.907(1)
H11 H 0.887(1) 1.053(1) 0.977(1)
H12 H 1.071(1) 1.194(1) 0.923(1)
H13 H 1.069(1) 1.260(1) 0.800(1)
H14 H 0.890(1) 1.189(1) 0.727(1)
H15 H 0.705(1) 1.048(1) 0.777(1)
S1 S 0.3164(2) 0.0111(3) 0.4996(1)
O1 O 0.0359(5) 0.3354(6) 0.6455(2)
O2 O -0.0732(6) 0.2497(8) 0.4090(3)
O3 O -0.2208(5) 0.4178(7) 0.4811(3)
N1 N 0.1580(5) 0.1881(7) 0.5712(3)
N2 N 0.1022(6) 0.1415(8) 0.4552(3)
N3 N -0.1778(5) 0.4558(7) 0.5967(3)
C1 C 0.3095(8) -0.0407(10) 0.4087(4)
C2 C 0.1797(7) 0.1234(8) 0.5062(3)
C3 C 0.0489(7) 0.2812(9) 0.5858(4)
C4 C -0.0028(7) 0.2332(9) 0.4640(4)
C5 C -0.0334(7) 0.3061(9) 0.5288(4)
C6 C -0.1503(7) 0.3975(9) 0.5333(4)
C7 C 0.2493(7) 0.1705(9) 0.6284(3)
C8 C 0.2292(7) 0.0531(9) 0.6784(3)
C9 C 0.3138(7) 0.0440(10) 0.7350(4)
C10 C 0.4139(7) 0.1474(9) 0.7388(4)
C11 C 0.4346(8) 0.2619(9) 0.6886(4)
C12 C 0.3475(6) 0.2756(9) 0.6320(3)
C13 C -0.2863(7) 0.5402(9) 0.6195(3)
C14 C -0.3870(7) 0.5814(9) 0.5784(4)
C15 C -0.4903(8) 0.6618(10) 0.6086(4)
C16 C -0.4890(9) 0.6982(11) 0.6778(4)
C17 C -0.3894(8) 0.6590(11) 0.7186(5)
C18 C -0.2853(8) 0.5794(10) 0.6900(4)
H1 H -0.132(7) 0.307(9) 0.424(4)
H2 H -0.091(6) 0.436(8) 0.640(3)
H3 H 0.391(1) -0.113(1) 0.395(1)
H4 H 0.224(1) -0.107(1) 0.398(1)
H5 H 0.310(1) 0.067(1) 0.378(1)
H6 H 0.151(1) -0.029(1) 0.674(1)
H7 H 0.300(1) -0.045(1) 0.775(1)
H8 H 0.478(1) 0.139(1) 0.783(1)
H9 H 0.516(1) 0.340(1) 0.692(1)
H10 H 0.359(1) 0.367(1) 0.593(1)
H11 H -0.387(1) 0.553(1) 0.523(1)
H12 H -0.571(1) 0.694(1) 0.577(1)
H13 H -0.569(1) 0.760(1) 0.700(1)
H14 H -0.390(1) 0.689(1) 0.773(1)
H15 H -0.205(1) 0.548(1) 0.723(1)

#END
