./LAGBUQ_from_POSCAR.cif_generated_by_CrystalShift
_symmetry_cell_setting triclinic
_symmetry_space_group_name_H-M 'P 1'
loop_
_symmetry_equiv_pos_site_id
_symmetry_equiv_pos_as_xyz
1 x,y,z
_cell_length_a 8.011800
_cell_length_b 11.709000
_cell_length_c 16.055000
_cell_angle_alpha 90.000000
_cell_angle_beta 90.000000
_cell_angle_gamma 90.000000
_cell_volume 1506.122218
loop_
_atom_site_label
_atom_site_type_symbol
_atom_site_fract_x
_atom_site_fract_y
_atom_site_fract_z
H1 H 0.769700 0.414400 0.291000
H2 H 0.721000 0.514800 0.350900
H3 H 1.382000 0.390600 0.528900
H4 H 1.238400 0.299900 0.521600
H5 H 1.391000 0.295500 0.460300
H6 H 1.264000 0.755160 0.316100
H7 H 1.427700 0.681900 0.318900
H8 H 1.312000 0.677900 0.240100
H9 H 1.006000 0.347000 0.441100
H10 H 1.414000 0.531000 0.402300
H11 H 0.889000 0.394000 0.049700
H12 H 0.625000 0.506000 0.060000
H13 H 0.635000 0.645000 0.170300
H14 H 1.041000 0.697000 0.236500
H15 H 0.850000 0.686000 0.434800
H16 H 0.659000 0.852000 0.451900
H17 H 0.613000 0.934000 0.312100
H18 H 1.046000 0.471000 0.161400
H19 H 0.762000 0.828000 0.216000
H20 H 0.730300 0.585600 0.791000
H21 H 0.238000 0.328000 0.284000
H22 H -0.046000 -0.029000 0.338600
H23 H 0.387000 0.434000 0.187900
H24 H 0.341000 0.352000 0.048100
H25 H 0.150000 0.186000 0.065200
H26 H -0.041000 0.197000 0.263500
H27 H 0.365000 0.145000 0.329700
H28 H 0.375000 0.006000 0.440000
H29 H 0.111000 -0.106000 0.450300
H30 H -0.414000 0.031000 0.097700
H31 H -0.006000 -0.153000 0.058900
H32 H -0.312000 0.177900 0.259900
H33 H -0.427700 0.181900 0.181100
H34 H -0.264000 0.255160 0.183900
H35 H -0.391000 -0.204500 0.039700
H36 H -0.238400 -0.200100 -0.021600
H37 H -0.382000 -0.109400 -0.028900
H38 H 0.279000 0.014800 0.149100
H39 H 0.250800 -0.108300 0.113300
H40 H 0.230300 -0.085600 0.209000
H41 H 0.750800 0.608300 0.886700
H42 H 0.779000 0.485200 0.850900
H43 H 0.118000 0.609400 1.028900
H44 H 0.261600 0.700100 1.021600
H45 H 0.109000 0.704500 0.960300
H46 H 0.236000 0.244840 0.816100
H47 H 0.072300 0.318100 0.818900
H48 H 0.188000 0.322100 0.740100
H49 H 0.494000 0.653000 0.941100
H50 H 0.086000 0.469000 0.902300
H51 H 0.611000 0.606000 0.549700
H52 H 0.875000 0.494000 0.560000
H53 H 0.865000 0.355000 0.670300
H54 H 0.459000 0.303000 0.736500
H55 H 0.650000 0.314000 0.934800
H56 H 0.841000 0.148000 0.951900
H57 H 0.887000 0.066000 0.812100
H58 H 0.454000 0.529000 0.661400
H59 H 0.738000 0.172000 0.716000
H60 H 0.269700 1.085600 0.709000
H61 H 0.262000 0.672000 0.784000
H62 H 0.546000 1.029000 0.838600
H63 H 0.113000 0.566000 0.687900
H64 H 0.159000 0.648000 0.548100
H65 H 0.350000 0.814000 0.565200
H66 H 0.541000 0.803000 0.763500
H67 H 0.135000 0.855000 0.829700
H68 H 0.125000 0.994000 0.940000
H69 H 0.389000 1.106000 0.950300
H70 H 0.914000 0.969000 0.597700
H71 H 0.506000 1.153000 0.558900
H72 H 0.812000 0.822100 0.759900
H73 H 0.927700 0.818100 0.681100
H74 H 0.764000 0.744840 0.683900
H75 H 0.891000 1.204500 0.539700
H76 H 0.738400 1.200100 0.478400
H77 H 0.882000 1.109400 0.471100
H78 H 0.221000 0.985200 0.649100
H79 H 0.249200 1.108300 0.613300
H80 H 0.749200 0.391700 0.386700
C81 C 0.332000 0.375500 0.170100
C82 C 0.832000 0.124500 0.829900
C83 C 0.800600 0.170300 0.905100
C84 C 0.691900 0.263600 0.893860
C85 C 0.659600 0.273400 0.810070
C86 C 0.546400 0.353100 0.761970
C87 C 0.632000 0.414800 0.691260
C88 C 0.783800 0.403400 0.654300
C89 C 0.792700 0.484100 0.588800
C90 C 0.650400 0.543100 0.587260
C91 C 0.300600 0.329700 0.094900
C92 C 0.452300 0.433800 0.820760
C93 C 0.282400 0.414100 0.837450
C94 C 0.197800 0.486500 0.892500
C95 C 0.275200 0.577300 0.930660
C96 C 0.439800 0.597200 0.911690
C97 C 0.533300 0.527500 0.858680
C98 C 0.185700 0.315800 0.799700
C99 C 0.182600 0.655000 0.990900
C100 C 0.714700 0.554000 0.845600
C101 C 0.817400 1.155000 0.509100
C102 C 0.814300 0.815800 0.700300
C103 C 0.466700 1.027500 0.641320
C104 C 0.560200 1.097200 0.588310
C105 C 0.724800 1.077300 0.569340
C106 C 0.802200 0.986500 0.607500
C107 C 0.717600 0.914100 0.662550
C108 C 0.547700 0.933800 0.679240
C109 C 0.191900 0.236400 0.106140
C110 C 0.349600 1.043100 0.912740
C111 C 0.207300 0.984100 0.911200
C112 C 0.216200 0.903400 0.845700
C113 C 0.368000 0.914800 0.808740
C114 C 0.453600 0.853100 0.738030
C115 C 0.340400 0.773400 0.689930
C116 C 0.308100 0.763600 0.606140
C117 C 0.199400 0.670300 0.594900
C118 C 0.168000 0.624500 0.670100
C119 C 0.159600 0.226600 0.189930
C120 C 0.214700 -0.054000 0.154400
C121 C 0.046400 0.146900 0.238030
C122 C 0.668000 0.875500 0.329900
C123 C 0.699400 0.829700 0.405100
C124 C 0.808100 0.736400 0.393860
C125 C 0.840400 0.726600 0.310070
C126 C 0.953600 0.646900 0.261970
C127 C 0.868000 0.585200 0.191260
C128 C 0.716200 0.596600 0.154300
C129 C 0.707300 0.515900 0.088800
C130 C 0.849600 0.456900 0.087260
C131 C 0.132000 0.085200 0.308740
C132 C 1.047700 0.566200 0.320760
C133 C 1.217600 0.585900 0.337450
C134 C 1.302200 0.513500 0.392500
C135 C 1.224800 0.422700 0.430660
C136 C 1.060200 0.402800 0.411690
C137 C 0.966700 0.472500 0.358680
C138 C 1.314300 0.684200 0.299700
C139 C 1.317400 0.345000 0.490900
C140 C 0.785300 0.446000 0.345600
C141 C -0.317400 -0.155000 0.009100
C142 C -0.314300 0.184200 0.200300
C143 C 0.033300 -0.027500 0.141320
C144 C -0.060200 -0.097200 0.088310
C145 C -0.224800 -0.077300 0.069340
C146 C -0.302200 0.013500 0.107500
C147 C -0.217600 0.085900 0.162550
C148 C -0.047700 0.066200 0.179240
C149 C 0.283800 0.096600 0.345700
C150 C 0.150400 -0.043100 0.412740
C151 C 0.292700 0.015900 0.411200
C152 C 0.285300 1.054000 0.654400
N153 N 0.754700 0.813900 0.271580
N154 N 0.254700 0.686100 0.728420
N155 N 0.449000 1.000300 0.850380
N156 N 0.551000 0.500300 0.649620
N157 N 0.745300 0.186100 0.771580
N158 N 0.949000 0.499700 0.149620
N159 N 0.051000 -0.000300 0.350380
N160 N 0.245300 0.313900 0.228420

#END
