
#######################################################################
#
#                 Cambridge Crystallographic Data Centre
#                                CCDC 
#
#######################################################################
#
# If this CIF has been generated from an entry in the Cambridge 
# Structural Database, then it will include bibliographic, chemical, 
# crystal, experimental, refinement or atomic coordinate data resulting 
# from the CCDC's data processing and validation procedures.
#
#######################################################################

data_LAGFII
_symmetry_cell_setting           tetragonal
_symmetry_space_group_name_H-M   'I 41'
_symmetry_Int_Tables_number      80
_space_group_name_Hall           'I 4bw'
loop_
_symmetry_equiv_pos_site_id
_symmetry_equiv_pos_as_xyz
1 x,y,z
2 1/2+x,1/2+y,1/2+z
3 -y,1/2+x,1/4+z
4 1/2-y,x,3/4+z
5 -x,-y,z
6 1/2-x,1/2-y,1/2+z
7 y,1/2-x,1/4+z
8 1/2+y,-x,3/4+z
_cell_length_a                   15.307(2)
_cell_length_b                   15.307(2)
_cell_length_c                   18.937(10)
_cell_angle_alpha                90
_cell_angle_beta                 90
_cell_angle_gamma                90
_cell_volume                     4437.02
loop_
_atom_site_label
_atom_site_type_symbol
_atom_site_fract_x
_atom_site_fract_y
_atom_site_fract_z
C1 C 0.3342(2) 0.9651(3) 0.5010(2)
C2 C 0.4259(2) 0.8898(3) 0.4101(2)
C3 C 0.3390(2) 0.8003(3) 0.498
C4 C 0.3429(2) 0.8843(2) 0.4559(2)
C5 C 0.1897(2) 0.8827(2) 0.4186(1)
O1 O 0.2750(1) 0.8862(1) 0.4017(1)
O2 O 0.1606(1) 0.8742(1) 0.47835(9)
N1 N 0.1395(1) 0.8885(1) 0.3611(1)
C6 C 0.1704(2) 0.9014(2) 0.2889(1)
C7 C 0.0952(2) 0.8818(2) 0.2376(2)
C8 C 0.0612(2) 0.7879(2) 0.2477(2)
C9 C 0.1278(2) 0.8953(3) 0.1612(2)
C10 C 0.2013(2) 0.9952(2) 0.2802(1)
O3 O 0.1542(1) 1.0579(1) 0.2943(1)
N2 N 0.2818(1) 1.0066(1) 0.2543(1)
C11 C 0.3195(2) 1.0934(2) 0.2449(1)
C12 C 0.3371(2) 1.1370(2) 0.3170(2)
C13 C 0.4074(2) 1.0841(2) 0.2072(2)
O4 O 0.3995(1) 1.0404(1) 0.14257(9)
C14 C 0.2604(2) 1.1519(2) 0.1991(2)
O5 O 0.2169(1) 1.1065(1) 0.1508(1)
O6 O 0.2602(2) 1.2298(1) 0.2048(1)
C15 C 0.1651(2) 1.1580(3) 0.1015(2)
H1 H 0.088(1) 0.896(1) 0.373(1)
H2 H 0.312(1) 0.958(1) 0.242(1)
H3 H 0.408(2) 1.068(2) 0.113(1)
H4 H 0.382(2) 0.964(2) 0.530(2)
H6 H 0.283(2) 0.965(2) 0.533(2)
H7 H 0.475(2) 0.888(2) 0.443(2)
H8 H 0.439(2) 0.957(2) 0.383(2)
H9 H 0.430(2) 0.841(2) 0.373(2)
H10 H 0.278(2) 0.784(2) 0.522(2)
H11 H 0.338(2) 0.751(2) 0.467(2)
H12 H 0.401(2) 0.787(2) 0.514(2)
H13 H 0.221(1) 0.860(1) 0.281(1)
H14 H 0.044(2) 0.935(1) 0.252(1)
H15 H 0.144(2) 0.963(2) 0.156(2)
H16 H 0.089(2) 0.875(2) 0.136(2)
H17 H 0.179(3) 0.857(3) 0.153(3)
H18 H 0.038(2) 0.783(2) 0.296(2)
H19 H 0.012(2) 0.795(2) 0.223(2)
H20 H 0.112(2) 0.753(2) 0.236(2)
H21 H 0.378(2) 1.098(2) 0.345(2)
H22 H 0.275(2) 1.141(2) 0.348(2)
H23 H 0.364(2) 1.198(2) 0.307(1)
H24 H 0.433(1) 1.146(1) 0.198(1)
H25 H 0.454(2) 1.040(2) 0.242(1)
H26 H 0.125(2) 1.192(2) 0.127(2)
H27 H 0.213(3) 1.189(3) 0.063(3)
H28 H 0.117(3) 1.116(2) 0.090(2)
C1 C 0.8342(2) 0.4651(3) 1.0010(2)
C2 C 0.9259(2) 0.3898(3) 0.9101(2)
C3 C 0.8390(2) 0.3003(3) 0.998
C4 C 0.8429(2) 0.3843(2) 0.9559(2)
C5 C 0.6897(2) 0.3827(2) 0.9186(1)
O1 O 0.7750(1) 0.3862(1) 0.9017(1)
O2 O 0.6606(1) 0.3742(1) 0.97835(9)
N1 N 0.6395(1) 0.3885(1) 0.8611(1)
C6 C 0.6704(2) 0.4014(2) 0.7889(1)
C7 C 0.5952(2) 0.3818(2) 0.7376(2)
C8 C 0.5612(2) 0.2879(2) 0.7477(2)
C9 C 0.6278(2) 0.3953(3) 0.6612(2)
C10 C 0.7013(2) 0.4952(2) 0.7802(1)
O3 O 0.6542(1) 0.5579(1) 0.7943(1)
N2 N 0.7818(1) 0.5066(1) 0.7543(1)
C11 C 0.8195(2) 0.5934(2) 0.7449(1)
C12 C 0.8371(2) 0.6370(2) 0.8170(2)
C13 C 0.9074(2) 0.5841(2) 0.7072(2)
O4 O 0.8995(1) 0.5404(1) 0.64257(9)
C14 C 0.7604(2) 0.6519(2) 0.6991(2)
O5 O 0.7169(1) 0.6065(1) 0.6508(1)
O6 O 0.7602(2) 0.7298(1) 0.7048(1)
C15 C 0.6651(2) 0.6580(3) 0.6015(2)
H1 H 0.588(1) 0.396(1) 0.873(1)
H2 H 0.812(1) 0.458(1) 0.742(1)
H3 H 0.908(2) 0.568(2) 0.613(1)
H4 H 0.882(2) 0.464(2) 1.030(2)
H6 H 0.783(2) 0.465(2) 1.033(2)
H7 H 0.975(2) 0.388(2) 0.943(2)
H8 H 0.939(2) 0.457(2) 0.883(2)
H9 H 0.930(2) 0.341(2) 0.873(2)
H10 H 0.778(2) 0.284(2) 1.022(2)
H11 H 0.838(2) 0.251(2) 0.967(2)
H12 H 0.901(2) 0.287(2) 1.014(2)
H13 H 0.721(1) 0.360(1) 0.781(1)
H14 H 0.544(2) 0.435(1) 0.752(1)
H15 H 0.644(2) 0.463(2) 0.656(2)
H16 H 0.589(2) 0.375(2) 0.636(2)
H17 H 0.679(3) 0.357(3) 0.653(3)
H18 H 0.538(2) 0.283(2) 0.796(2)
H19 H 0.512(2) 0.295(2) 0.723(2)
H20 H 0.612(2) 0.253(2) 0.736(2)
H21 H 0.878(2) 0.598(2) 0.845(2)
H22 H 0.775(2) 0.641(2) 0.848(2)
H23 H 0.864(2) 0.698(2) 0.807(1)
H24 H 0.933(1) 0.646(1) 0.698(1)
H25 H 0.954(2) 0.540(2) 0.742(1)
H26 H 0.625(2) 0.692(2) 0.627(2)
H27 H 0.713(3) 0.689(3) 0.563(3)
H28 H 0.617(3) 0.616(2) 0.590(2)
C1 C 0.0349(3) 0.8342(2) 0.7510(2)
C2 C 0.1102(3) 0.9259(2) 0.6601(2)
C3 C 0.1997(3) 0.8390(2) 0.748
C4 C 0.1157(2) 0.8429(2) 0.7059(2)
C5 C 0.1173(2) 0.6897(2) 0.6686(1)
O1 O 0.1138(1) 0.7750(1) 0.6517(1)
O2 O 0.1258(1) 0.6606(1) 0.72835(9)
N1 N 0.1115(1) 0.6395(1) 0.6111(1)
C6 C 0.0986(2) 0.6704(2) 0.5389(1)
C7 C 0.1182(2) 0.5952(2) 0.4876(2)
C8 C 0.2121(2) 0.5612(2) 0.4977(2)
C9 C 0.1047(3) 0.6278(2) 0.4112(2)
C10 C 0.0048(2) 0.7013(2) 0.5302(1)
O3 O -0.0579(1) 0.6542(1) 0.5443(1)
N2 N -0.0066(1) 0.7818(1) 0.5043(1)
C11 C -0.0934(2) 0.8195(2) 0.4949(1)
C12 C -0.1370(2) 0.8371(2) 0.5670(2)
C13 C -0.0841(2) 0.9074(2) 0.4572(2)
O4 O -0.0404(1) 0.8995(1) 0.39257(9)
C14 C -0.1519(2) 0.7604(2) 0.4491(2)
O5 O -0.1065(1) 0.7169(1) 0.4008(1)
O6 O -0.2298(1) 0.7602(2) 0.4548(1)
C15 C -0.1580(3) 0.6651(2) 0.3515(2)
H1 H 0.104(1) 0.588(1) 0.623(1)
H2 H 0.042(1) 0.812(1) 0.492(1)
H3 H -0.068(2) 0.908(2) 0.363(1)
H4 H 0.036(2) 0.882(2) 0.780(2)
H6 H 0.035(2) 0.783(2) 0.783(2)
H7 H 0.112(2) 0.975(2) 0.693(2)
H8 H 0.043(2) 0.939(2) 0.633(2)
H9 H 0.159(2) 0.930(2) 0.623(2)
H10 H 0.216(2) 0.778(2) 0.772(2)
H11 H 0.249(2) 0.838(2) 0.717(2)
H12 H 0.213(2) 0.901(2) 0.764(2)
H13 H 0.140(1) 0.721(1) 0.531(1)
H14 H 0.065(1) 0.544(2) 0.502(1)
H15 H 0.037(2) 0.644(2) 0.406(2)
H16 H 0.125(2) 0.589(2) 0.386(2)
H17 H 0.143(3) 0.679(3) 0.403(3)
H18 H 0.217(2) 0.538(2) 0.546(2)
H19 H 0.205(2) 0.512(2) 0.473(2)
H20 H 0.247(2) 0.612(2) 0.486(2)
H21 H -0.098(2) 0.878(2) 0.595(2)
H22 H -0.141(2) 0.775(2) 0.598(2)
H23 H -0.198(2) 0.864(2) 0.557(1)
H24 H -0.146(1) 0.933(1) 0.448(1)
H25 H -0.040(2) 0.954(2) 0.492(1)
H26 H -0.192(2) 0.625(2) 0.377(2)
H27 H -0.189(3) 0.713(3) 0.313(3)
H28 H -0.116(2) 0.617(3) 0.340(2)
C1 C 0.5349(3) 0.3342(2) 0.2510(2)
C2 C 0.6102(3) 0.4259(2) 0.1601(2)
C3 C 0.6997(3) 0.3390(2) 0.248
C4 C 0.6157(2) 0.3429(2) 0.2059(2)
C5 C 0.6173(2) 0.1897(2) 0.1686(1)
O1 O 0.6138(1) 0.2750(1) 0.1517(1)
O2 O 0.6258(1) 0.1606(1) 0.22835(9)
N1 N 0.6115(1) 0.1395(1) 0.1111(1)
C6 C 0.5986(2) 0.1704(2) 0.0389(1)
C7 C 0.6182(2) 0.0952(2) -0.0124(2)
C8 C 0.7121(2) 0.0612(2) -0.0023(2)
C9 C 0.6047(3) 0.1278(2) -0.0888(2)
C10 C 0.5048(2) 0.2013(2) 0.0302(1)
O3 O 0.4421(1) 0.1542(1) 0.0443(1)
N2 N 0.4934(1) 0.2818(1) 0.0043(1)
C11 C 0.4066(2) 0.3195(2) -0.0051(1)
C12 C 0.3630(2) 0.3371(2) 0.0670(2)
C13 C 0.4159(2) 0.4074(2) -0.0428(2)
O4 O 0.4596(1) 0.3995(1) -0.10743(9)
C14 C 0.3481(2) 0.2604(2) -0.0509(2)
O5 O 0.3935(1) 0.2169(1) -0.0992(1)
O6 O 0.2702(1) 0.2602(2) -0.0452(1)
C15 C 0.3420(3) 0.1651(2) -0.1485(2)
H1 H 0.604(1) 0.088(1) 0.123(1)
H2 H 0.542(1) 0.312(1) -0.008(1)
H3 H 0.432(2) 0.408(2) -0.137(1)
H4 H 0.536(2) 0.382(2) 0.280(2)
H6 H 0.535(2) 0.283(2) 0.283(2)
H7 H 0.612(2) 0.475(2) 0.193(2)
H8 H 0.543(2) 0.439(2) 0.133(2)
H9 H 0.659(2) 0.430(2) 0.123(2)
H10 H 0.716(2) 0.278(2) 0.272(2)
H11 H 0.749(2) 0.338(2) 0.217(2)
H12 H 0.713(2) 0.401(2) 0.264(2)
H13 H 0.640(1) 0.221(1) 0.031(1)
H14 H 0.565(1) 0.044(2) 0.002(1)
H15 H 0.537(2) 0.144(2) -0.094(2)
H16 H 0.625(2) 0.089(2) -0.114(2)
H17 H 0.643(3) 0.179(3) -0.097(3)
H18 H 0.717(2) 0.038(2) 0.046(2)
H19 H 0.705(2) 0.012(2) -0.027(2)
H20 H 0.747(2) 0.112(2) -0.014(2)
H21 H 0.402(2) 0.378(2) 0.095(2)
H22 H 0.359(2) 0.275(2) 0.098(2)
H23 H 0.302(2) 0.364(2) 0.057(1)
H24 H 0.354(1) 0.433(1) -0.052(1)
H25 H 0.460(2) 0.454(2) -0.008(1)
H26 H 0.308(2) 0.125(2) -0.123(2)
H27 H 0.311(3) 0.213(3) -0.187(3)
H28 H 0.384(2) 0.117(3) -0.160(2)
C1 C 0.6658(2) 0.0349(3) 0.5010(2)
C2 C 0.5741(2) 0.1102(3) 0.4101(2)
C3 C 0.6610(2) 0.1997(3) 0.498
C4 C 0.6571(2) 0.1157(2) 0.4559(2)
C5 C 0.8103(2) 0.1173(2) 0.4186(1)
O1 O 0.7250(1) 0.1138(1) 0.4017(1)
O2 O 0.8394(1) 0.1258(1) 0.47835(9)
N1 N 0.8605(1) 0.1115(1) 0.3611(1)
C6 C 0.8296(2) 0.0986(2) 0.2889(1)
C7 C 0.9048(2) 0.1182(2) 0.2376(2)
C8 C 0.9388(2) 0.2121(2) 0.2477(2)
C9 C 0.8722(2) 0.1047(3) 0.1612(2)
C10 C 0.7987(2) 0.0048(2) 0.2802(1)
O3 O 0.8458(1) -0.0579(1) 0.2943(1)
N2 N 0.7182(1) -0.0066(1) 0.2543(1)
C11 C 0.6805(2) -0.0934(2) 0.2449(1)
C12 C 0.6629(2) -0.1370(2) 0.3170(2)
C13 C 0.5926(2) -0.0841(2) 0.2072(2)
O4 O 0.6005(1) -0.0404(1) 0.14257(9)
C14 C 0.7396(2) -0.1519(2) 0.1991(2)
O5 O 0.7831(1) -0.1065(1) 0.1508(1)
O6 O 0.7398(2) -0.2298(1) 0.2048(1)
C15 C 0.8349(2) -0.1580(3) 0.1015(2)
H1 H 0.912(1) 0.104(1) 0.373(1)
H2 H 0.688(1) 0.042(1) 0.242(1)
H3 H 0.592(2) -0.068(2) 0.113(1)
H4 H 0.618(2) 0.036(2) 0.530(2)
H6 H 0.717(2) 0.035(2) 0.533(2)
H7 H 0.525(2) 0.112(2) 0.443(2)
H8 H 0.561(2) 0.043(2) 0.383(2)
H9 H 0.570(2) 0.159(2) 0.373(2)
H10 H 0.722(2) 0.216(2) 0.522(2)
H11 H 0.662(2) 0.249(2) 0.467(2)
H12 H 0.599(2) 0.213(2) 0.514(2)
H13 H 0.779(1) 0.140(1) 0.281(1)
H14 H 0.956(2) 0.065(1) 0.252(1)
H15 H 0.856(2) 0.037(2) 0.156(2)
H16 H 0.911(2) 0.125(2) 0.136(2)
H17 H 0.821(3) 0.143(3) 0.153(3)
H18 H 0.962(2) 0.217(2) 0.296(2)
H19 H 0.988(2) 0.205(2) 0.223(2)
H20 H 0.888(2) 0.247(2) 0.236(2)
H21 H 0.622(2) -0.098(2) 0.345(2)
H22 H 0.725(2) -0.141(2) 0.348(2)
H23 H 0.636(2) -0.198(2) 0.307(1)
H24 H 0.567(1) -0.146(1) 0.198(1)
H25 H 0.546(2) -0.040(2) 0.242(1)
H26 H 0.875(2) -0.192(2) 0.127(2)
H27 H 0.787(3) -0.189(3) 0.063(3)
H28 H 0.883(3) -0.116(2) 0.090(2)
C1 C 0.1658(2) 0.5349(3) 1.0010(2)
C2 C 0.0741(2) 0.6102(3) 0.9101(2)
C3 C 0.1610(2) 0.6997(3) 0.998
C4 C 0.1571(2) 0.6157(2) 0.9559(2)
C5 C 0.3103(2) 0.6173(2) 0.9186(1)
O1 O 0.2250(1) 0.6138(1) 0.9017(1)
O2 O 0.3394(1) 0.6258(1) 0.97835(9)
N1 N 0.3605(1) 0.6115(1) 0.8611(1)
C6 C 0.3296(2) 0.5986(2) 0.7889(1)
C7 C 0.4048(2) 0.6182(2) 0.7376(2)
C8 C 0.4388(2) 0.7121(2) 0.7477(2)
C9 C 0.3722(2) 0.6047(3) 0.6612(2)
C10 C 0.2987(2) 0.5048(2) 0.7802(1)
O3 O 0.3458(1) 0.4421(1) 0.7943(1)
N2 N 0.2182(1) 0.4934(1) 0.7543(1)
C11 C 0.1805(2) 0.4066(2) 0.7449(1)
C12 C 0.1629(2) 0.3630(2) 0.8170(2)
C13 C 0.0926(2) 0.4159(2) 0.7072(2)
O4 O 0.1005(1) 0.4596(1) 0.64257(9)
C14 C 0.2396(2) 0.3481(2) 0.6991(2)
O5 O 0.2831(1) 0.3935(1) 0.6508(1)
O6 O 0.2398(2) 0.2702(1) 0.7048(1)
C15 C 0.3349(2) 0.3420(3) 0.6015(2)
H1 H 0.412(1) 0.604(1) 0.873(1)
H2 H 0.188(1) 0.542(1) 0.742(1)
H3 H 0.092(2) 0.432(2) 0.613(1)
H4 H 0.118(2) 0.536(2) 1.030(2)
H6 H 0.217(2) 0.535(2) 1.033(2)
H7 H 0.025(2) 0.612(2) 0.943(2)
H8 H 0.061(2) 0.543(2) 0.883(2)
H9 H 0.070(2) 0.659(2) 0.873(2)
H10 H 0.222(2) 0.716(2) 1.022(2)
H11 H 0.162(2) 0.749(2) 0.967(2)
H12 H 0.099(2) 0.713(2) 1.014(2)
H13 H 0.279(1) 0.640(1) 0.781(1)
H14 H 0.456(2) 0.565(1) 0.752(1)
H15 H 0.356(2) 0.537(2) 0.656(2)
H16 H 0.411(2) 0.625(2) 0.636(2)
H17 H 0.321(3) 0.643(3) 0.653(3)
H18 H 0.462(2) 0.717(2) 0.796(2)
H19 H 0.488(2) 0.705(2) 0.723(2)
H20 H 0.388(2) 0.747(2) 0.736(2)
H21 H 0.122(2) 0.402(2) 0.845(2)
H22 H 0.225(2) 0.359(2) 0.848(2)
H23 H 0.136(2) 0.302(2) 0.807(1)
H24 H 0.067(1) 0.354(1) 0.698(1)
H25 H 0.046(2) 0.460(2) 0.742(1)
H26 H 0.375(2) 0.308(2) 0.627(2)
H27 H 0.287(3) 0.311(3) 0.563(3)
H28 H 0.383(3) 0.384(2) 0.590(2)
C1 C 0.9651(3) 0.1658(2) 0.7510(2)
C2 C 0.8898(3) 0.0741(2) 0.6601(2)
C3 C 0.8003(3) 0.1610(2) 0.748
C4 C 0.8843(2) 0.1571(2) 0.7059(2)
C5 C 0.8827(2) 0.3103(2) 0.6686(1)
O1 O 0.8862(1) 0.2250(1) 0.6517(1)
O2 O 0.8742(1) 0.3394(1) 0.72835(9)
N1 N 0.8885(1) 0.3605(1) 0.6111(1)
C6 C 0.9014(2) 0.3296(2) 0.5389(1)
C7 C 0.8818(2) 0.4048(2) 0.4876(2)
C8 C 0.7879(2) 0.4388(2) 0.4977(2)
C9 C 0.8953(3) 0.3722(2) 0.4112(2)
C10 C 0.9952(2) 0.2987(2) 0.5302(1)
O3 O 1.0579(1) 0.3458(1) 0.5443(1)
N2 N 1.0066(1) 0.2182(1) 0.5043(1)
C11 C 1.0934(2) 0.1805(2) 0.4949(1)
C12 C 1.1370(2) 0.1629(2) 0.5670(2)
C13 C 1.0841(2) 0.0926(2) 0.4572(2)
O4 O 1.0404(1) 0.1005(1) 0.39257(9)
C14 C 1.1519(2) 0.2396(2) 0.4491(2)
O5 O 1.1065(1) 0.2831(1) 0.4008(1)
O6 O 1.2298(1) 0.2398(2) 0.4548(1)
C15 C 1.1580(3) 0.3349(2) 0.3515(2)
H1 H 0.896(1) 0.412(1) 0.623(1)
H2 H 0.958(1) 0.188(1) 0.492(1)
H3 H 1.068(2) 0.092(2) 0.363(1)
H4 H 0.964(2) 0.118(2) 0.780(2)
H6 H 0.965(2) 0.217(2) 0.783(2)
H7 H 0.888(2) 0.025(2) 0.693(2)
H8 H 0.957(2) 0.061(2) 0.633(2)
H9 H 0.841(2) 0.070(2) 0.623(2)
H10 H 0.784(2) 0.222(2) 0.772(2)
H11 H 0.751(2) 0.162(2) 0.717(2)
H12 H 0.787(2) 0.099(2) 0.764(2)
H13 H 0.860(1) 0.279(1) 0.531(1)
H14 H 0.935(1) 0.456(2) 0.502(1)
H15 H 0.963(2) 0.356(2) 0.406(2)
H16 H 0.875(2) 0.411(2) 0.386(2)
H17 H 0.857(3) 0.321(3) 0.403(3)
H18 H 0.783(2) 0.462(2) 0.546(2)
H19 H 0.795(2) 0.488(2) 0.473(2)
H20 H 0.753(2) 0.388(2) 0.486(2)
H21 H 1.098(2) 0.122(2) 0.595(2)
H22 H 1.141(2) 0.225(2) 0.598(2)
H23 H 1.198(2) 0.136(2) 0.557(1)
H24 H 1.146(1) 0.067(1) 0.448(1)
H25 H 1.040(2) 0.046(2) 0.492(1)
H26 H 1.192(2) 0.375(2) 0.377(2)
H27 H 1.189(3) 0.287(3) 0.313(3)
H28 H 1.116(2) 0.383(3) 0.340(2)
C1 C 0.4651(3) 0.6658(2) 0.2510(2)
C2 C 0.3898(3) 0.5741(2) 0.1601(2)
C3 C 0.3003(3) 0.6610(2) 0.248
C4 C 0.3843(2) 0.6571(2) 0.2059(2)
C5 C 0.3827(2) 0.8103(2) 0.1686(1)
O1 O 0.3862(1) 0.7250(1) 0.1517(1)
O2 O 0.3742(1) 0.8394(1) 0.22835(9)
N1 N 0.3885(1) 0.8605(1) 0.1111(1)
C6 C 0.4014(2) 0.8296(2) 0.0389(1)
C7 C 0.3818(2) 0.9048(2) -0.0124(2)
C8 C 0.2879(2) 0.9388(2) -0.0023(2)
C9 C 0.3953(3) 0.8722(2) -0.0888(2)
C10 C 0.4952(2) 0.7987(2) 0.0302(1)
O3 O 0.5579(1) 0.8458(1) 0.0443(1)
N2 N 0.5066(1) 0.7182(1) 0.0043(1)
C11 C 0.5934(2) 0.6805(2) -0.0051(1)
C12 C 0.6370(2) 0.6629(2) 0.0670(2)
C13 C 0.5841(2) 0.5926(2) -0.0428(2)
O4 O 0.5404(1) 0.6005(1) -0.10743(9)
C14 C 0.6519(2) 0.7396(2) -0.0509(2)
O5 O 0.6065(1) 0.7831(1) -0.0992(1)
O6 O 0.7298(1) 0.7398(2) -0.0452(1)
C15 C 0.6580(3) 0.8349(2) -0.1485(2)
H1 H 0.396(1) 0.912(1) 0.123(1)
H2 H 0.458(1) 0.688(1) -0.008(1)
H3 H 0.568(2) 0.592(2) -0.137(1)
H4 H 0.464(2) 0.618(2) 0.280(2)
H6 H 0.465(2) 0.717(2) 0.283(2)
H7 H 0.388(2) 0.525(2) 0.193(2)
H8 H 0.457(2) 0.561(2) 0.133(2)
H9 H 0.341(2) 0.570(2) 0.123(2)
H10 H 0.284(2) 0.722(2) 0.272(2)
H11 H 0.251(2) 0.662(2) 0.217(2)
H12 H 0.287(2) 0.599(2) 0.264(2)
H13 H 0.360(1) 0.779(1) 0.031(1)
H14 H 0.435(1) 0.956(2) 0.002(1)
H15 H 0.463(2) 0.856(2) -0.094(2)
H16 H 0.375(2) 0.911(2) -0.114(2)
H17 H 0.357(3) 0.821(3) -0.097(3)
H18 H 0.283(2) 0.962(2) 0.046(2)
H19 H 0.295(2) 0.988(2) -0.027(2)
H20 H 0.253(2) 0.888(2) -0.014(2)
H21 H 0.598(2) 0.622(2) 0.095(2)
H22 H 0.641(2) 0.725(2) 0.098(2)
H23 H 0.698(2) 0.636(2) 0.057(1)
H24 H 0.646(1) 0.567(1) -0.052(1)
H25 H 0.540(2) 0.546(2) -0.008(1)
H26 H 0.692(2) 0.875(2) -0.123(2)
H27 H 0.689(3) 0.787(3) -0.187(3)
H28 H 0.616(2) 0.883(3) -0.160(2)
H5? H 0.337(3) 0.040(3) 0.461(3)
H5? H 0.837(3) 0.540(3) 0.961(3)
H5? H 0.960(3) 0.837(3) 0.711(3)
H5? H 0.460(3) 0.337(3) 0.211(3)
H5? H 0.663(3) 0.960(3) 0.461(3)
H5? H 0.163(3) 0.460(3) 0.961(3)
H5? H 0.040(3) 0.163(3) 0.711(3)
H5? H 0.540(3) 0.663(3) 0.211(3)

#END
